@<TRIPOS>MOLECULE
2qbp_ligand_025
    60    63
SMALL
GAST_HUCK
****
This file was generated by PARSER (from files_GN.cpp)

@<TRIPOS>ATOM
      1 S1         44.0645   15.8678    2.3023 S.3         1 MOL      -0.0382
      2 C2         45.3208   16.1314    3.4500 C.2         1 MOL       0.0813
      3 C3         46.4393   15.4197    2.9882 C.2         1 MOL       0.1014
      4 C4         46.1983   14.6444    1.8308 C.2         1 MOL       0.0465
      5 C5         44.9307   14.8158    1.2516 C.2         1 MOL       0.0450
      6 C6         45.2009   16.9673    4.5809 C.2         1 MOL       0.0555
      7 O7         46.0813   17.9890    4.8133 O.co2       1 MOL      -0.5699
      8 O8         44.0795   16.9026    5.3445 O.co2       1 MOL      -0.5699
      9 C9         44.3816   14.3123    0.0456 C.ar        1 MOL      -0.0166
     10 C10        43.6872   15.1995   -0.8167 C.ar        1 MOL      -0.0362
     11 C11        42.8985   14.7255   -1.8886 C.ar        1 MOL       0.0383
     12 C12        42.8814   13.3406   -2.1539 C.ar        1 MOL      -0.0440
     13 C13        43.6570   12.4578   -1.3809 C.ar        1 MOL      -0.0722
     14 C14        44.3849   12.9338   -0.2738 C.ar        1 MOL      -0.0655
     15 BR19       47.5143   13.5208    1.1385 Br          1 MOL      -0.0668
     16 O20        47.6235   15.4225    3.6591 O.3         1 MOL      -0.3141
     17 C21        48.5415   16.4656    3.2558 C.3         1 MOL       0.1195
     18 C22        48.9491   17.1727    4.4756 C.2         1 MOL       0.0648
     19 O25        49.4908   16.4806    5.5025 O.co2       1 MOL      -0.5663
     20 O26        48.5378   18.4418    4.6989 O.co2       1 MOL      -0.5663
     21 N29        42.1076   15.6382   -2.5047 N.pl3       1 MOL      -0.3201
     22 C30        40.7185   15.4601   -2.8177 C.3         1 MOL       0.0379
     23 C31        39.9414   16.6218   -2.1506 C.3         1 MOL      -0.0135
     24 C32        38.4206   16.5429   -2.4345 C.3         1 MOL       0.0314
     25 N33        38.1325   16.3630   -3.8353 N.am        1 MOL      -0.2365
     26 C34        38.8840   15.3869   -4.5975 C.3         1 MOL       0.0314
     27 C35        40.4207   15.4604   -4.3388 C.3         1 MOL      -0.0135
     28 S46        36.5786   16.7844   -4.3798 S.o2        1 MOL       0.0512
     29 O47        36.6719   17.3049   -5.8841 O.2         1 MOL      -0.1532
     30 O48        36.0592   18.0942   -3.6403 O.2         1 MOL      -0.1532
     31 C49        35.2899   15.5178   -4.3017 C.3         1 MOL       0.1181
     32 C50        35.1975   14.8987   -2.9596 C.ar        1 MOL      -0.0204
     33 C53        34.2572   15.3624   -2.0080 C.ar        1 MOL      -0.0587
     34 C54        34.1675   14.7652   -0.7360 C.ar        1 MOL      -0.0685
     35 C55        35.0238   13.7033   -0.3910 C.ar        1 MOL      -0.0687
     36 C56        35.9646   13.2342   -1.3249 C.ar        1 MOL      -0.0685
     37 C57        36.0458   13.8230   -2.6023 C.ar        1 MOL      -0.0587
     38 H1         43.7052   16.2045   -0.6160 H           1 MOL       0.0516
     39 H2         42.3253   12.9731   -2.9274 H           1 MOL       0.0521
     40 H3         43.6456   11.4572   -1.5908 H           1 MOL       0.0585
     41 H4         44.8763   12.2597    0.3243 H           1 MOL       0.0520
     42 H5         48.1198   17.1855    2.5471 H           1 MOL       0.0780
     43 H6         49.4222   16.0040    2.7966 H           1 MOL       0.0780
     44 H7         42.3806   16.5647   -2.3918 H           1 MOL       0.1756
     45 H8         40.3496   14.5154   -2.3932 H           1 MOL       0.0548
     46 H9         40.3180   17.5786   -2.5211 H           1 MOL       0.0303
     47 H10        40.1046   16.6015   -1.0685 H           1 MOL       0.0303
     48 H11        37.9749   17.4695   -2.0574 H           1 MOL       0.0479
     49 H12        37.9956   15.7160   -1.8665 H           1 MOL       0.0479
     50 H13        38.7216   15.5257   -5.6743 H           1 MOL       0.0479
     51 H14        38.5201   14.3877   -4.3282 H           1 MOL       0.0479
     52 H15        40.9028   14.6007   -4.8161 H           1 MOL       0.0303
     53 H16        40.8179   16.3679   -4.7972 H           1 MOL       0.0303
     54 H17        35.5064   14.7608   -5.0636 H           1 MOL       0.0682
     55 H18        34.3357   15.9823   -4.5749 H           1 MOL       0.0682
     56 H19        33.6187   16.1295   -2.2403 H           1 MOL       0.0557
     57 H20        33.4771   15.1026   -0.0584 H           1 MOL       0.0599
     58 H21        34.9585   13.2693    0.5322 H           1 MOL       0.0559
     59 H22        36.5901   12.4604   -1.0757 H           1 MOL       0.0599
     60 H23        36.7385   13.4640   -3.2694 H           1 MOL       0.0557
@<TRIPOS>BOND
     1     1     2   1
     2     1     5   1
     3     2     3   2
     4     2     6   1
     5     3     4   1
     6     3    16   1
     7     4     5   2
     8     4    15   1
     9     5     9   1
    10     6     7  ar
    11     6     8  ar
    12     9    10  ar
    13     9    14  ar
    14    10    11  ar
    15    11    12  ar
    16    11    21   1
    17    12    13  ar
    18    13    14  ar
    19    16    17   1
    20    17    18   1
    21    18    19  ar
    22    18    20  ar
    23    21    22   1
    24    22    23   1
    25    22    27   1
    26    23    24   1
    27    24    25   1
    28    25    26   1
    29    25    28  am
    30    26    27   1
    31    28    29   2
    32    28    30   2
    33    28    31   1
    34    31    32   1
    35    32    33  ar
    36    32    37  ar
    37    33    34  ar
    38    34    35  ar
    39    35    36  ar
    40    36    37  ar
    41    10    38   1
    42    12    39   1
    43    13    40   1
    44    14    41   1
    45    17    42   1
    46    17    43   1
    47    21    44   1
    48    22    45   1
    49    23    46   1
    50    23    47   1
    51    24    48   1
    52    24    49   1
    53    26    50   1
    54    26    51   1
    55    27    52   1
    56    27    53   1
    57    31    54   1
    58    31    55   1
    59    33    56   1
    60    34    57   1
    61    35    58   1
    62    36    59   1
    63    37    60   1
@<TRIPOS>SUBSTRUCTURE
     1  MOL      2

