@<TRIPOS>MOLECULE
2qbp_ligand_033
    60    63
SMALL
GAST_HUCK
****
This file was generated by PARSER (from files_GN.cpp)

@<TRIPOS>ATOM
      1 S1         44.8649   17.6788    1.6174 S.3         1 MOL      -0.0382
      2 C2         45.9467   17.3047    2.8977 C.2         1 MOL       0.0813
      3 C3         46.4323   16.0135    2.6255 C.2         1 MOL       0.1014
      4 C4         45.8766   15.3973    1.4827 C.2         1 MOL       0.0465
      5 C5         44.9762   16.1898    0.7523 C.2         1 MOL       0.0450
      6 C6         46.1305   18.1086    4.0386 C.2         1 MOL       0.0555
      7 O7         47.3946   18.4003    4.4154 O.co2       1 MOL      -0.5699
      8 O8         45.2733   17.8676    5.0504 O.co2       1 MOL      -0.5699
      9 C9         44.2161   15.8778   -0.4120 C.ar        1 MOL      -0.0166
     10 C10        42.8859   16.3474   -0.5451 C.ar        1 MOL      -0.0362
     11 C11        41.9979   15.8711   -1.5494 C.ar        1 MOL       0.0383
     12 C12        42.4976   14.9232   -2.4666 C.ar        1 MOL      -0.0440
     13 C13        43.8380   14.5147   -2.4300 C.ar        1 MOL      -0.0722
     14 C14        44.6954   14.9948   -1.4158 C.ar        1 MOL      -0.0655
     15 BR19       46.2377   13.6045    1.1131 Br          1 MOL      -0.0668
     16 O20        47.2234   15.2514    3.4491 O.3         1 MOL      -0.3141
     17 C21        46.8594   15.0674    4.8346 C.3         1 MOL       0.1195
     18 C22        45.4053   14.9250    5.1607 C.2         1 MOL       0.0648
     19 O25        44.4763   15.5710    4.4124 O.co2       1 MOL      -0.5663
     20 O26        45.0405   14.5908    6.4272 O.co2       1 MOL      -0.5663
     21 N29        40.7101   16.3074   -1.4974 N.pl3       1 MOL      -0.3201
     22 C30        39.5021   15.6011   -1.8132 C.3         1 MOL       0.0379
     23 C31        38.3389   16.3438   -1.0972 C.3         1 MOL      -0.0135
     24 C32        36.9913   15.6084   -1.2880 C.3         1 MOL       0.0314
     25 N33        36.7221   15.2766   -2.6704 N.am        1 MOL      -0.2365
     26 C34        37.7846   14.7202   -3.4773 C.3         1 MOL       0.0314
     27 C35        39.1229   15.4652   -3.3236 C.3         1 MOL      -0.0135
     28 S46        35.1189   15.0635   -3.1886 S.o2        1 MOL       0.0512
     29 O47        35.0359   13.8821   -4.2530 O.2         1 MOL      -0.1532
     30 O48        34.7120   16.3789   -3.9805 O.2         1 MOL      -0.1532
     31 C49        33.8344   14.7652   -1.9450 C.3         1 MOL       0.1181
     32 C50        33.7317   13.3302   -1.5830 C.ar        1 MOL      -0.0204
     33 C53        34.2245   12.8421   -0.3474 C.ar        1 MOL      -0.0587
     34 C54        34.1088   11.4757   -0.0132 C.ar        1 MOL      -0.0685
     35 C55        33.4921   10.5783   -0.9073 C.ar        1 MOL      -0.0687
     36 C56        32.9854   11.0474   -2.1283 C.ar        1 MOL      -0.0685
     37 C57        33.1024   12.4129   -2.4610 C.ar        1 MOL      -0.0587
     38 H1         42.5345   17.0057    0.1578 H           1 MOL       0.0516
     39 H2         41.8923   14.5110   -3.1756 H           1 MOL       0.0521
     40 H3         44.2094   13.8706   -3.1328 H           1 MOL       0.0585
     41 H4         45.6623   14.6673   -1.4077 H           1 MOL       0.0520
     42 H5         47.2993   15.8719    5.4339 H           1 MOL       0.0780
     43 H6         47.3705   14.1263    5.1260 H           1 MOL       0.0780
     44 H7         40.5965   17.1203   -0.9695 H           1 MOL       0.1756
     45 H8         39.5734   14.5980   -1.3668 H           1 MOL       0.0548
     46 H9         38.2410   17.3618   -1.5040 H           1 MOL       0.0303
     47 H10        38.5370   16.4423   -0.0156 H           1 MOL       0.0303
     48 H11        36.2008   16.2564   -0.8939 H           1 MOL       0.0479
     49 H12        36.9966   14.6794   -0.7119 H           1 MOL       0.0479
     50 H13        37.5327   14.7225   -4.5488 H           1 MOL       0.0479
     51 H14        37.9332   13.6632   -3.1735 H           1 MOL       0.0479
     52 H15        39.9069   14.9134   -3.8625 H           1 MOL       0.0303
     53 H16        39.0535   16.4732   -3.7679 H           1 MOL       0.0303
     54 H17        32.8777   15.0922   -2.3565 H           1 MOL       0.0682
     55 H18        34.0312   15.3828   -1.0695 H           1 MOL       0.0682
     56 H19        34.6729   13.4753    0.3198 H           1 MOL       0.0557
     57 H20        34.4733   11.1334    0.8786 H           1 MOL       0.0599
     58 H21        33.4124    9.5885   -0.6659 H           1 MOL       0.0559
     59 H22        32.5329   10.3969   -2.7813 H           1 MOL       0.0599
     60 H23        32.7163   12.7350   -3.3533 H           1 MOL       0.0557
@<TRIPOS>BOND
     1     1     2   1
     2     1     5   1
     3     2     3   2
     4     2     6   1
     5     3     4   1
     6     3    16   1
     7     4     5   2
     8     4    15   1
     9     5     9   1
    10     6     7  ar
    11     6     8  ar
    12     9    10  ar
    13     9    14  ar
    14    10    11  ar
    15    11    12  ar
    16    11    21   1
    17    12    13  ar
    18    13    14  ar
    19    16    17   1
    20    17    18   1
    21    18    19  ar
    22    18    20  ar
    23    21    22   1
    24    22    23   1
    25    22    27   1
    26    23    24   1
    27    24    25   1
    28    25    26   1
    29    25    28  am
    30    26    27   1
    31    28    29   2
    32    28    30   2
    33    28    31   1
    34    31    32   1
    35    32    33  ar
    36    32    37  ar
    37    33    34  ar
    38    34    35  ar
    39    35    36  ar
    40    36    37  ar
    41    10    38   1
    42    12    39   1
    43    13    40   1
    44    14    41   1
    45    17    42   1
    46    17    43   1
    47    21    44   1
    48    22    45   1
    49    23    46   1
    50    23    47   1
    51    24    48   1
    52    24    49   1
    53    26    50   1
    54    26    51   1
    55    27    52   1
    56    27    53   1
    57    31    54   1
    58    31    55   1
    59    33    56   1
    60    34    57   1
    61    35    58   1
    62    36    59   1
    63    37    60   1
@<TRIPOS>SUBSTRUCTURE
     1  MOL      2

