@<TRIPOS>MOLECULE
2qbp_ligand_022
    60    63
SMALL
GAST_HUCK
****
This file was generated by PARSER (from files_GN.cpp)

@<TRIPOS>ATOM
      1 S1         44.7633   17.5604    1.8254 S.3         1 MOL      -0.0382
      2 C2         45.8928   17.1597    3.0585 C.2         1 MOL       0.0813
      3 C3         46.4169   15.9096    2.7343 C.2         1 MOL       0.1014
      4 C4         45.9235   15.3553    1.5273 C.2         1 MOL       0.0465
      5 C5         44.9497   16.1381    0.8683 C.2         1 MOL       0.0450
      6 C6         46.1538   17.9236    4.1974 C.2         1 MOL       0.0555
      7 O7         45.2706   17.8396    5.2194 O.co2       1 MOL      -0.5699
      8 O8         46.8083   19.1001    4.0599 O.co2       1 MOL      -0.5699
      9 C9         44.2586   15.8894   -0.3540 C.ar        1 MOL      -0.0166
     10 C10        43.8251   14.5890   -0.7148 C.ar        1 MOL      -0.0362
     11 C11        43.2943   14.3060   -1.9935 C.ar        1 MOL       0.0383
     12 C12        43.0543   15.3843   -2.8758 C.ar        1 MOL      -0.0440
     13 C13        43.3883   16.6980   -2.5043 C.ar        1 MOL      -0.0722
     14 C14        44.0077   16.9423   -1.2658 C.ar        1 MOL      -0.0655
     15 BR19       46.6504   13.7661    0.8619 Br          1 MOL      -0.0668
     16 O20        47.2976   15.2836    3.5759 O.3         1 MOL      -0.3141
     17 C21        46.7045   14.3073    4.4731 C.3         1 MOL       0.1195
     18 C22        45.4561   14.7474    5.1333 C.2         1 MOL       0.0648
     19 O25        45.0841   14.2013    6.3154 O.co2       1 MOL      -0.5663
     20 O26        44.4941   15.3697    4.4166 O.co2       1 MOL      -0.5663
     21 N29        43.0979   13.0000   -2.3124 N.pl3       1 MOL      -0.3201
     22 C30        43.1874   12.3995   -3.6189 C.3         1 MOL       0.0379
     23 C31        44.1507   11.1842   -3.5695 C.3         1 MOL      -0.0135
     24 C32        43.5325    9.9733   -2.8302 C.3         1 MOL       0.0314
     25 N33        42.2305    9.6528   -3.3597 N.am        1 MOL      -0.2365
     26 C34        41.2414   10.6944   -3.4734 C.3         1 MOL       0.0314
     27 C35        41.7991   11.9668   -4.1667 C.3         1 MOL      -0.0135
     28 S46        41.7665    8.0233   -3.3951 S.o2        1 MOL       0.0512
     29 O47        40.2145    7.8563   -3.7039 O.2         1 MOL      -0.1532
     30 O48        41.9574    7.3943   -1.9477 O.2         1 MOL      -0.1532
     31 C49        42.6758    7.0508   -4.6218 C.3         1 MOL       0.1181
     32 C50        43.4582    7.9191   -5.5393 C.ar        1 MOL      -0.0204
     33 C53        44.8717    7.8485   -5.5798 C.ar        1 MOL      -0.0587
     34 C54        45.6119    8.7234   -6.3958 C.ar        1 MOL      -0.0685
     35 C55        44.9504    9.6767   -7.1889 C.ar        1 MOL      -0.0687
     36 C56        43.5452    9.7459   -7.1749 C.ar        1 MOL      -0.0685
     37 C57        42.8048    8.8702   -6.3610 C.ar        1 MOL      -0.0587
     38 H1         43.9326   13.8177   -0.0514 H           1 MOL       0.0516
     39 H2         42.6199   15.2280   -3.7857 H           1 MOL       0.0521
     40 H3         43.2103   17.4684   -3.1470 H           1 MOL       0.0585
     41 H4         44.2921   17.8983   -1.0525 H           1 MOL       0.0520
     42 H5         47.4481   14.0802    5.2393 H           1 MOL       0.0780
     43 H6         46.5030   13.3690    3.9467 H           1 MOL       0.0780
     44 H7         43.1253   12.3737   -1.5672 H           1 MOL       0.1756
     45 H8         43.6235   13.1105   -4.3281 H           1 MOL       0.0548
     46 H9         45.0894   11.4708   -3.0847 H           1 MOL       0.0303
     47 H10        44.3910   10.8845   -4.5927 H           1 MOL       0.0303
     48 H11        43.4356   10.1932   -1.7641 H           1 MOL       0.0479
     49 H12        44.2269    9.1355   -2.9291 H           1 MOL       0.0479
     50 H13        40.8841   10.9487   -2.4731 H           1 MOL       0.0479
     51 H14        40.3782   10.3654   -4.0581 H           1 MOL       0.0479
     52 H15        41.9015   11.7539   -5.2360 H           1 MOL       0.0303
     53 H16        41.0847   12.7848   -4.0595 H           1 MOL       0.0303
     54 H17        41.9744    6.4405   -5.1948 H           1 MOL       0.0682
     55 H18        43.3284    6.3724   -4.0717 H           1 MOL       0.0682
     56 H19        45.3739    7.1757   -4.9959 H           1 MOL       0.0557
     57 H20        46.6336    8.6756   -6.4018 H           1 MOL       0.0599
     58 H21        45.4881   10.3188   -7.7739 H           1 MOL       0.0559
     59 H22        43.0627   10.4396   -7.7514 H           1 MOL       0.0599
     60 H23        41.7837    8.9430   -6.3532 H           1 MOL       0.0557
@<TRIPOS>BOND
     1     1     2   1
     2     1     5   1
     3     2     3   2
     4     2     6   1
     5     3     4   1
     6     3    16   1
     7     4     5   2
     8     4    15   1
     9     5     9   1
    10     6     7  ar
    11     6     8  ar
    12     9    10  ar
    13     9    14  ar
    14    10    11  ar
    15    11    12  ar
    16    11    21   1
    17    12    13  ar
    18    13    14  ar
    19    16    17   1
    20    17    18   1
    21    18    19  ar
    22    18    20  ar
    23    21    22   1
    24    22    23   1
    25    22    27   1
    26    23    24   1
    27    24    25   1
    28    25    26   1
    29    25    28  am
    30    26    27   1
    31    28    29   2
    32    28    30   2
    33    28    31   1
    34    31    32   1
    35    32    33  ar
    36    32    37  ar
    37    33    34  ar
    38    34    35  ar
    39    35    36  ar
    40    36    37  ar
    41    10    38   1
    42    12    39   1
    43    13    40   1
    44    14    41   1
    45    17    42   1
    46    17    43   1
    47    21    44   1
    48    22    45   1
    49    23    46   1
    50    23    47   1
    51    24    48   1
    52    24    49   1
    53    26    50   1
    54    26    51   1
    55    27    52   1
    56    27    53   1
    57    31    54   1
    58    31    55   1
    59    33    56   1
    60    34    57   1
    61    35    58   1
    62    36    59   1
    63    37    60   1
@<TRIPOS>SUBSTRUCTURE
     1  MOL      2

