@<TRIPOS>MOLECULE
2qbp_ligand_052
    60    63
SMALL
GAST_HUCK
****
This file was generated by PARSER (from files_GN.cpp)

@<TRIPOS>ATOM
      1 S1         46.8801   13.5781    4.0249 S.3         1 MOL      -0.0382
      2 C2         46.8781   15.2908    3.8755 C.2         1 MOL       0.0813
      3 C3         46.1505   15.6031    2.7177 C.2         1 MOL       0.1014
      4 C4         45.6086   14.4860    2.0510 C.2         1 MOL       0.0465
      5 C5         45.9344   13.2329    2.6247 C.2         1 MOL       0.0450
      6 C6         47.5306   16.1583    4.7584 C.2         1 MOL       0.0555
      7 O7         46.8426   16.5859    5.8417 O.co2       1 MOL      -0.5699
      8 O8         48.8869   16.1480    4.8242 O.co2       1 MOL      -0.5699
      9 C9         45.6940   11.9269    2.1131 C.ar        1 MOL      -0.0166
     10 C10        46.7356   10.9746    2.1572 C.ar        1 MOL      -0.0362
     11 C11        46.6597    9.7838    1.4098 C.ar        1 MOL       0.0383
     12 C12        45.4771    9.4863    0.6996 C.ar        1 MOL      -0.0440
     13 C13        44.3818   10.3608    0.7594 C.ar        1 MOL      -0.0722
     14 C14        44.4905   11.5839    1.4472 C.ar        1 MOL      -0.0655
     15 BR19       44.6507   14.7286    0.4611 Br          1 MOL      -0.0668
     16 O20        45.9048   16.8644    2.2335 O.3         1 MOL      -0.3141
     17 C21        45.1722   17.7967    3.0631 C.3         1 MOL       0.1195
     18 C22        44.3642   17.2247    4.1714 C.2         1 MOL       0.0648
     19 O25        44.4386   17.8161    5.3904 O.co2       1 MOL      -0.5663
     20 O26        43.9323   15.9372    4.1331 O.co2       1 MOL      -0.5663
     21 N29        47.7859    9.0422    1.3224 N.pl3       1 MOL      -0.3201
     22 C30        48.5546    8.9271    0.1091 C.3         1 MOL       0.0379
     23 C31        50.0055    9.3972    0.4129 C.3         1 MOL      -0.0135
     24 C32        50.7624    8.3746    1.2938 C.3         1 MOL       0.0314
     25 N33        50.7241    7.0812    0.6651 N.am        1 MOL      -0.2365
     26 C34        49.4464    6.4972    0.3217 C.3         1 MOL       0.0314
     27 C35        48.5621    7.4930   -0.4699 C.3         1 MOL      -0.0135
     28 S46        52.1596    6.1822    0.5587 S.o2        1 MOL       0.0512
     29 O47        51.9076    4.6170    0.7147 O.2         1 MOL      -0.1532
     30 O48        53.0825    6.5737    1.7941 O.2         1 MOL      -0.1532
     31 C49        53.0310    6.5355   -0.9863 C.3         1 MOL       0.1181
     32 C50        52.6391    5.5901   -2.0585 C.ar        1 MOL      -0.0204
     33 C53        51.6127    5.9079   -2.9767 C.ar        1 MOL      -0.0587
     34 C54        51.2671    5.0095   -4.0051 C.ar        1 MOL      -0.0685
     35 C55        51.9422    3.7811   -4.1255 C.ar        1 MOL      -0.0687
     36 C56        52.9565    3.4491   -3.2083 C.ar        1 MOL      -0.0685
     37 C57        53.3039    4.3488   -2.1836 C.ar        1 MOL      -0.0587
     38 H1         47.6216   11.2139    2.6061 H           1 MOL       0.0516
     39 H2         45.4009    8.6246    0.1610 H           1 MOL       0.0521
     40 H3         43.5145   10.1286    0.2635 H           1 MOL       0.0585
     41 H4         43.6871   12.2213    1.4375 H           1 MOL       0.0520
     42 H5         44.4888   18.3220    2.3941 H           1 MOL       0.0780
     43 H6         45.8885   18.5401    3.4515 H           1 MOL       0.0780
     44 H7         48.2922    8.9481    2.1469 H           1 MOL       0.1756
     45 H8         48.1628    9.6122   -0.6499 H           1 MOL       0.0548
     46 H9         49.9954   10.3682    0.9294 H           1 MOL       0.0303
     47 H10        50.5594    9.5267   -0.5356 H           1 MOL       0.0303
     48 H11        50.3146    8.2993    2.2852 H           1 MOL       0.0479
     49 H12        51.7865    8.7346    1.4265 H           1 MOL       0.0479
     50 H13        48.9207    6.2162    1.2371 H           1 MOL       0.0479
     51 H14        49.5500    5.5998   -0.2976 H           1 MOL       0.0479
     52 H15        48.9361    7.5528   -1.5016 H           1 MOL       0.0303
     53 H16        47.5367    7.1202   -0.5468 H           1 MOL       0.0303
     54 H17        54.1026    6.4783   -0.7981 H           1 MOL       0.0682
     55 H18        52.8126    7.5612   -1.2827 H           1 MOL       0.0682
     56 H19        51.1097    6.7987   -2.9079 H           1 MOL       0.0557
     57 H20        50.5270    5.2502   -4.6697 H           1 MOL       0.0599
     58 H21        51.6951    3.1313   -4.8709 H           1 MOL       0.0559
     59 H22        53.4475    2.5547   -3.2901 H           1 MOL       0.0599
     60 H23        54.0457    4.0887   -1.5277 H           1 MOL       0.0557
@<TRIPOS>BOND
     1     1     2   1
     2     1     5   1
     3     2     3   2
     4     2     6   1
     5     3     4   1
     6     3    16   1
     7     4     5   2
     8     4    15   1
     9     5     9   1
    10     6     7  ar
    11     6     8  ar
    12     9    10  ar
    13     9    14  ar
    14    10    11  ar
    15    11    12  ar
    16    11    21   1
    17    12    13  ar
    18    13    14  ar
    19    16    17   1
    20    17    18   1
    21    18    19  ar
    22    18    20  ar
    23    21    22   1
    24    22    23   1
    25    22    27   1
    26    23    24   1
    27    24    25   1
    28    25    26   1
    29    25    28  am
    30    26    27   1
    31    28    29   2
    32    28    30   2
    33    28    31   1
    34    31    32   1
    35    32    33  ar
    36    32    37  ar
    37    33    34  ar
    38    34    35  ar
    39    35    36  ar
    40    36    37  ar
    41    10    38   1
    42    12    39   1
    43    13    40   1
    44    14    41   1
    45    17    42   1
    46    17    43   1
    47    21    44   1
    48    22    45   1
    49    23    46   1
    50    23    47   1
    51    24    48   1
    52    24    49   1
    53    26    50   1
    54    26    51   1
    55    27    52   1
    56    27    53   1
    57    31    54   1
    58    31    55   1
    59    33    56   1
    60    34    57   1
    61    35    58   1
    62    36    59   1
    63    37    60   1
@<TRIPOS>SUBSTRUCTURE
     1  MOL      2

