@<TRIPOS>MOLECULE
2qbp_ligand_070
    60    63
SMALL
GAST_HUCK
****
This file was generated by PARSER (from files_GN.cpp)

@<TRIPOS>ATOM
      1 S1         44.7805   17.6967    1.8705 S.3         1 MOL      -0.0382
      2 C2         45.9776   17.1951    2.9860 C.2         1 MOL       0.0813
      3 C3         46.3680   15.9051    2.6077 C.2         1 MOL       0.1014
      4 C4         45.7328   15.4133    1.4456 C.2         1 MOL       0.0465
      5 C5         44.7922   16.2898    0.8711 C.2         1 MOL       0.0450
      6 C6         46.4321   17.9735    4.0486 C.2         1 MOL       0.0555
      7 O7         47.7445   18.2998    4.1002 O.co2       1 MOL      -0.5699
      8 O8         45.7588   17.8890    5.2228 O.co2       1 MOL      -0.5699
      9 C9         44.0832   16.1772   -0.3441 C.ar        1 MOL      -0.0166
     10 C10        44.0469   17.2822   -1.2160 C.ar        1 MOL      -0.0362
     11 C11        43.5287   17.1802   -2.5237 C.ar        1 MOL       0.0383
     12 C12        42.9463   15.9578   -2.9396 C.ar        1 MOL      -0.0440
     13 C13        42.8986   14.8721   -2.0552 C.ar        1 MOL      -0.0722
     14 C14        43.4465   14.9765   -0.7604 C.ar        1 MOL      -0.0655
     15 BR19       46.1790   13.7444    0.7211 Br          1 MOL      -0.0668
     16 O20        47.2457   15.1952    3.3766 O.3         1 MOL      -0.3141
     17 C21        46.6456   14.3376    4.3705 C.3         1 MOL       0.1195
     18 C22        45.4152   14.8397    5.0126 C.2         1 MOL       0.0648
     19 O25        45.0083   14.3496    6.2018 O.co2       1 MOL      -0.5663
     20 O26        44.4708   15.4815    4.2913 O.co2       1 MOL      -0.5663
     21 N29        43.6092   18.2696   -3.3168 N.pl3       1 MOL      -0.3201
     22 C30        44.6708   18.4185   -4.2652 C.3         1 MOL       0.0379
     23 C31        44.2558   19.3705   -5.4159 C.3         1 MOL      -0.0135
     24 C32        45.4496   19.7271   -6.3361 C.3         1 MOL       0.0314
     25 N33        46.5729   20.2156   -5.5720 N.am        1 MOL      -0.2365
     26 C34        47.0429   19.4262   -4.4584 C.3         1 MOL       0.0314
     27 C35        45.8945   19.0332   -3.5127 C.3         1 MOL      -0.0135
     28 S46        47.5132   21.4727   -6.2130 S.o2        1 MOL       0.0512
     29 O47        46.6940   22.8234   -6.0112 O.2         1 MOL      -0.1532
     30 O48        47.6745   21.2210   -7.7767 O.2         1 MOL      -0.1532
     31 C49        49.1714   21.7200   -5.5300 C.3         1 MOL       0.1181
     32 C50        49.8062   22.9184   -6.1314 C.ar        1 MOL      -0.0204
     33 C53        50.5015   22.8281   -7.3609 C.ar        1 MOL      -0.0587
     34 C54        51.0666   23.9756   -7.9488 C.ar        1 MOL      -0.0685
     35 C55        50.9315   25.2257   -7.3196 C.ar        1 MOL      -0.0687
     36 C56        50.2473   25.3324   -6.0972 C.ar        1 MOL      -0.0685
     37 C57        49.6834   24.1856   -5.5080 C.ar        1 MOL      -0.0587
     38 H1         44.5298   18.1511   -0.9750 H           1 MOL       0.0516
     39 H2         42.5458   15.8670   -3.8733 H           1 MOL       0.0521
     40 H3         42.4501   13.9929   -2.3416 H           1 MOL       0.0585
     41 H4         43.3998   14.1721   -0.1376 H           1 MOL       0.0520
     42 H5         47.3926   14.1705    5.1427 H           1 MOL       0.0780
     43 H6         46.4326   13.3680    3.9317 H           1 MOL       0.0780
     44 H7         43.3666   19.1185   -2.9000 H           1 MOL       0.1756
     45 H8         44.9721   17.4538   -4.7034 H           1 MOL       0.0548
     46 H9         43.8360   20.3030   -5.0110 H           1 MOL       0.0303
     47 H10        43.4707   18.8925   -6.0218 H           1 MOL       0.0303
     48 H11        45.1086   20.4628   -7.0728 H           1 MOL       0.0479
     49 H12        45.7710   18.8300   -6.8860 H           1 MOL       0.0479
     50 H13        47.7707   19.9852   -3.8507 H           1 MOL       0.0479
     51 H14        47.5501   18.5254   -4.8399 H           1 MOL       0.0479
     52 H15        46.2638   18.3216   -2.7700 H           1 MOL       0.0303
     53 H16        45.5681   19.9388   -2.9806 H           1 MOL       0.0303
     54 H17        49.7647   20.8239   -5.7273 H           1 MOL       0.0682
     55 H18        49.0856   21.8432   -4.4493 H           1 MOL       0.0682
     56 H19        50.5986   21.9251   -7.8342 H           1 MOL       0.0557
     57 H20        51.5600   23.8987   -8.8388 H           1 MOL       0.0599
     58 H21        51.3299   26.0594   -7.7535 H           1 MOL       0.0559
     59 H22        50.1436   26.2401   -5.6424 H           1 MOL       0.0599
     60 H23        49.1780   24.2787   -4.6244 H           1 MOL       0.0557
@<TRIPOS>BOND
     1     1     2   1
     2     1     5   1
     3     2     3   2
     4     2     6   1
     5     3     4   1
     6     3    16   1
     7     4     5   2
     8     4    15   1
     9     5     9   1
    10     6     7  ar
    11     6     8  ar
    12     9    10  ar
    13     9    14  ar
    14    10    11  ar
    15    11    12  ar
    16    11    21   1
    17    12    13  ar
    18    13    14  ar
    19    16    17   1
    20    17    18   1
    21    18    19  ar
    22    18    20  ar
    23    21    22   1
    24    22    23   1
    25    22    27   1
    26    23    24   1
    27    24    25   1
    28    25    26   1
    29    25    28  am
    30    26    27   1
    31    28    29   2
    32    28    30   2
    33    28    31   1
    34    31    32   1
    35    32    33  ar
    36    32    37  ar
    37    33    34  ar
    38    34    35  ar
    39    35    36  ar
    40    36    37  ar
    41    10    38   1
    42    12    39   1
    43    13    40   1
    44    14    41   1
    45    17    42   1
    46    17    43   1
    47    21    44   1
    48    22    45   1
    49    23    46   1
    50    23    47   1
    51    24    48   1
    52    24    49   1
    53    26    50   1
    54    26    51   1
    55    27    52   1
    56    27    53   1
    57    31    54   1
    58    31    55   1
    59    33    56   1
    60    34    57   1
    61    35    58   1
    62    36    59   1
    63    37    60   1
@<TRIPOS>SUBSTRUCTURE
     1  MOL      2

