@<TRIPOS>MOLECULE
2qbp_ligand_054
    60    63
SMALL
GAST_HUCK
****
This file was generated by PARSER (from files_GN.cpp)

@<TRIPOS>ATOM
      1 S1         44.8636   14.6956    0.1350 S.3         1 MOL      -0.0382
      2 C2         45.2670   15.7485    1.4347 C.2         1 MOL       0.0813
      3 C3         46.0353   15.0016    2.3419 C.2         1 MOL       0.1014
      4 C4         46.2924   13.6736    1.9335 C.2         1 MOL       0.0465
      5 C5         45.7020   13.3090    0.7130 C.2         1 MOL       0.0450
      6 C6         44.8639   17.0897    1.5038 C.2         1 MOL       0.0555
      7 O7         45.7524   18.0949    1.6633 O.co2       1 MOL      -0.5699
      8 O8         43.5591   17.4114    1.3908 O.co2       1 MOL      -0.5699
      9 C9         45.8203   12.1297   -0.0566 C.ar        1 MOL      -0.0166
     10 C10        44.6704   11.4210   -0.4836 C.ar        1 MOL      -0.0362
     11 C11        44.7497   10.4226   -1.4810 C.ar        1 MOL       0.0383
     12 C12        46.0246   10.0768   -1.9918 C.ar        1 MOL      -0.0440
     13 C13        47.1852   10.7092   -1.5090 C.ar        1 MOL      -0.0722
     14 C14        47.0858   11.7383   -0.5581 C.ar        1 MOL      -0.0655
     15 BR19       47.2480   12.4754    3.0003 Br          1 MOL      -0.0668
     16 O20        46.5182   15.5087    3.5198 O.3         1 MOL      -0.3141
     17 C21        45.5948   15.4416    4.6318 C.3         1 MOL       0.1195
     18 C22        45.3489   16.7813    5.1748 C.2         1 MOL       0.0648
     19 O25        44.0867   17.2660    5.2883 O.co2       1 MOL      -0.5663
     20 O26        46.3463   17.4622    5.7885 O.co2       1 MOL      -0.5663
     21 N29        43.5653    9.9264   -1.9232 N.pl3       1 MOL      -0.3201
     22 C30        43.1803    9.7340   -3.2993 C.3         1 MOL       0.0379
     23 C31        43.3416    8.2539   -3.7733 C.3         1 MOL      -0.0135
     24 C32        42.2449    7.3187   -3.2131 C.3         1 MOL       0.0314
     25 N33        40.9356    7.8981   -3.4085 N.am        1 MOL      -0.2365
     26 C34        40.7071    9.1956   -2.8345 C.3         1 MOL       0.0314
     27 C35        41.7087   10.2071   -3.4544 C.3         1 MOL      -0.0135
     28 S46        39.8044    7.2473   -4.4976 S.o2        1 MOL       0.0512
     29 O47        38.5150    6.7533   -3.7105 O.2         1 MOL      -0.1532
     30 O48        40.3912    5.9231   -5.1766 O.2         1 MOL      -0.1532
     31 C49        39.3545    8.2820   -5.9175 C.3         1 MOL       0.1181
     32 C50        38.2401    9.2181   -5.6233 C.ar        1 MOL      -0.0204
     33 C53        36.8938    8.7572   -5.6286 C.ar        1 MOL      -0.0587
     34 C54        35.8386    9.6163   -5.3108 C.ar        1 MOL      -0.0685
     35 C55        36.0861   10.9698   -5.0080 C.ar        1 MOL      -0.0687
     36 C56        37.4124   11.4486   -5.0228 C.ar        1 MOL      -0.0685
     37 C57        38.4682   10.5923   -5.3466 C.ar        1 MOL      -0.0587
     38 H1         43.7528   11.7062   -0.1237 H           1 MOL       0.0516
     39 H2         46.1112    9.3601   -2.7135 H           1 MOL       0.0521
     40 H3         48.1009   10.4390   -1.8735 H           1 MOL       0.0585
     41 H4         47.9343   12.2444   -0.2866 H           1 MOL       0.0520
     42 H5         46.0581   14.8365    5.4067 H           1 MOL       0.0780
     43 H6         44.6368   14.9624    4.4027 H           1 MOL       0.0780
     44 H7         42.8324    9.9521   -1.2874 H           1 MOL       0.1756
     45 H8         43.7998   10.3725   -3.9402 H           1 MOL       0.0548
     46 H9         44.3267    7.8698   -3.4972 H           1 MOL       0.0303
     47 H10        43.2767    8.2327   -4.8647 H           1 MOL       0.0303
     48 H11        42.4123    7.1636   -2.1420 H           1 MOL       0.0479
     49 H12        42.3421    6.3360   -3.6864 H           1 MOL       0.0479
     50 H13        40.8439    9.1279   -1.7511 H           1 MOL       0.0479
     51 H14        39.6886    9.5463   -2.9823 H           1 MOL       0.0479
     52 H15        41.4823   10.3283   -4.5188 H           1 MOL       0.0303
     53 H16        41.5751   11.1882   -2.9827 H           1 MOL       0.0303
     54 H17        39.0585    7.6362   -6.7496 H           1 MOL       0.0682
     55 H18        40.2566    8.8112   -6.2358 H           1 MOL       0.0682
     56 H19        36.6936    7.7744   -5.8416 H           1 MOL       0.0557
     57 H20        34.8747    9.2645   -5.3052 H           1 MOL       0.0599
     58 H21        35.3139   11.5951   -4.7758 H           1 MOL       0.0559
     59 H22        37.5909   12.4368   -4.8042 H           1 MOL       0.0599
     60 H23        39.4228   10.9633   -5.3546 H           1 MOL       0.0557
@<TRIPOS>BOND
     1     1     2   1
     2     1     5   1
     3     2     3   2
     4     2     6   1
     5     3     4   1
     6     3    16   1
     7     4     5   2
     8     4    15   1
     9     5     9   1
    10     6     7  ar
    11     6     8  ar
    12     9    10  ar
    13     9    14  ar
    14    10    11  ar
    15    11    12  ar
    16    11    21   1
    17    12    13  ar
    18    13    14  ar
    19    16    17   1
    20    17    18   1
    21    18    19  ar
    22    18    20  ar
    23    21    22   1
    24    22    23   1
    25    22    27   1
    26    23    24   1
    27    24    25   1
    28    25    26   1
    29    25    28  am
    30    26    27   1
    31    28    29   2
    32    28    30   2
    33    28    31   1
    34    31    32   1
    35    32    33  ar
    36    32    37  ar
    37    33    34  ar
    38    34    35  ar
    39    35    36  ar
    40    36    37  ar
    41    10    38   1
    42    12    39   1
    43    13    40   1
    44    14    41   1
    45    17    42   1
    46    17    43   1
    47    21    44   1
    48    22    45   1
    49    23    46   1
    50    23    47   1
    51    24    48   1
    52    24    49   1
    53    26    50   1
    54    26    51   1
    55    27    52   1
    56    27    53   1
    57    31    54   1
    58    31    55   1
    59    33    56   1
    60    34    57   1
    61    35    58   1
    62    36    59   1
    63    37    60   1
@<TRIPOS>SUBSTRUCTURE
     1  MOL      2

