@<TRIPOS>MOLECULE
2qbp_ligand_029
    60    63
SMALL
GAST_HUCK
****
This file was generated by PARSER (from files_GN.cpp)

@<TRIPOS>ATOM
      1 S1         46.7601   14.2672    3.9676 S.3         1 MOL      -0.0382
      2 C2         45.7057   15.6228    4.0907 C.2         1 MOL       0.0813
      3 C3         45.1026   15.7926    2.8340 C.2         1 MOL       0.1014
      4 C4         45.4964   14.8446    1.8684 C.2         1 MOL       0.0465
      5 C5         46.4323   13.9074    2.3236 C.2         1 MOL       0.0450
      6 C6         45.5019   16.3773    5.2554 C.2         1 MOL       0.0555
      7 O7         44.2495   16.6555    5.6944 O.co2       1 MOL      -0.5699
      8 O8         46.5585   16.9843    5.8562 O.co2       1 MOL      -0.5699
      9 C9         46.9926   12.8748    1.5741 C.ar        1 MOL      -0.0166
     10 C10        46.1987   11.7585    1.2646 C.ar        1 MOL      -0.0362
     11 C11        46.6308   10.7808    0.3325 C.ar        1 MOL       0.0383
     12 C12        47.9251   10.9078   -0.2479 C.ar        1 MOL      -0.0440
     13 C13        48.7488   11.9836    0.1107 C.ar        1 MOL      -0.0722
     14 C14        48.2950   12.9692    1.0156 C.ar        1 MOL      -0.0655
     15 BR19       44.7621   14.8161    0.1466 Br          1 MOL      -0.0668
     16 O20        44.3315   16.8996    2.5808 O.3         1 MOL      -0.3141
     17 C21        45.0446   18.0727    2.1130 C.3         1 MOL       0.1195
     18 C22        46.4089   18.2338    2.6657 C.2         1 MOL       0.0648
     19 O25        47.3581   17.3371    2.3188 O.co2       1 MOL      -0.5663
     20 O26        46.5700   18.9458    3.8140 O.co2       1 MOL      -0.5663
     21 N29        45.8341    9.7196    0.1089 N.pl3       1 MOL      -0.3201
     22 C30        45.1231    9.4792   -1.1245 C.3         1 MOL       0.0379
     23 C31        43.8493    8.6821   -0.7087 C.3         1 MOL      -0.0135
     24 C32        42.8610    8.4372   -1.8713 C.3         1 MOL       0.0314
     25 N33        42.5640    9.6508   -2.5734 N.am        1 MOL      -0.2365
     26 C34        43.6637   10.4447   -3.0574 C.3         1 MOL       0.0314
     27 C35        44.6996   10.7522   -1.9333 C.3         1 MOL      -0.0135
     28 S46        41.0149    9.8998   -3.2123 S.o2        1 MOL       0.0512
     29 O47        40.4810   11.3052   -2.7002 O.2         1 MOL      -0.1532
     30 O48        39.9767    8.8461   -2.6282 O.2         1 MOL      -0.1532
     31 C49        40.8651    9.8481   -5.0064 C.3         1 MOL       0.1181
     32 C50        41.3910    8.5986   -5.6001 C.ar        1 MOL      -0.0204
     33 C53        42.5278    8.6114   -6.4415 C.ar        1 MOL      -0.0587
     34 C54        42.9782    7.4417   -7.0767 C.ar        1 MOL      -0.0685
     35 C55        42.2936    6.2303   -6.8853 C.ar        1 MOL      -0.0687
     36 C56        41.1754    6.1894   -6.0290 C.ar        1 MOL      -0.0685
     37 C57        40.7354    7.3653   -5.3925 C.ar        1 MOL      -0.0587
     38 H1         45.2474   11.6591    1.6561 H           1 MOL       0.0516
     39 H2         48.2753   10.2106   -0.9152 H           1 MOL       0.0521
     40 H3         49.6987   12.0871   -0.2952 H           1 MOL       0.0585
     41 H4         48.8842   13.7555    1.2576 H           1 MOL       0.0520
     42 H5         44.4558   18.9460    2.4168 H           1 MOL       0.0780
     43 H6         45.0732   18.0866    1.0233 H           1 MOL       0.0780
     44 H7         45.3026    9.4647    0.8977 H           1 MOL       0.1756
     45 H8         45.7536    8.8512   -1.7527 H           1 MOL       0.0548
     46 H9         43.3247    9.2398    0.0725 H           1 MOL       0.0303
     47 H10        44.1635    7.7248   -0.2875 H           1 MOL       0.0303
     48 H11        41.9707    8.0009   -1.4121 H           1 MOL       0.0479
     49 H12        43.2743    7.7028   -2.5676 H           1 MOL       0.0479
     50 H13        43.3179   11.4013   -3.4615 H           1 MOL       0.0479
     51 H14        44.1673    9.9015   -3.8592 H           1 MOL       0.0479
     52 H15        45.5896   11.2018   -2.3961 H           1 MOL       0.0303
     53 H16        44.2553   11.4866   -1.2508 H           1 MOL       0.0303
     54 H17        41.3909   10.7172   -5.3980 H           1 MOL       0.0682
     55 H18        39.8167    9.9588   -5.2813 H           1 MOL       0.0682
     56 H19        43.0315    9.4828   -6.6137 H           1 MOL       0.0557
     57 H20        43.8011    7.4714   -7.6915 H           1 MOL       0.0599
     58 H21        42.6103    5.3811   -7.3595 H           1 MOL       0.0559
     59 H22        40.6796    5.2998   -5.8922 H           1 MOL       0.0599
     60 H23        39.9119    7.3091   -4.7901 H           1 MOL       0.0557
@<TRIPOS>BOND
     1     1     2   1
     2     1     5   1
     3     2     3   2
     4     2     6   1
     5     3     4   1
     6     3    16   1
     7     4     5   2
     8     4    15   1
     9     5     9   1
    10     6     7  ar
    11     6     8  ar
    12     9    10  ar
    13     9    14  ar
    14    10    11  ar
    15    11    12  ar
    16    11    21   1
    17    12    13  ar
    18    13    14  ar
    19    16    17   1
    20    17    18   1
    21    18    19  ar
    22    18    20  ar
    23    21    22   1
    24    22    23   1
    25    22    27   1
    26    23    24   1
    27    24    25   1
    28    25    26   1
    29    25    28  am
    30    26    27   1
    31    28    29   2
    32    28    30   2
    33    28    31   1
    34    31    32   1
    35    32    33  ar
    36    32    37  ar
    37    33    34  ar
    38    34    35  ar
    39    35    36  ar
    40    36    37  ar
    41    10    38   1
    42    12    39   1
    43    13    40   1
    44    14    41   1
    45    17    42   1
    46    17    43   1
    47    21    44   1
    48    22    45   1
    49    23    46   1
    50    23    47   1
    51    24    48   1
    52    24    49   1
    53    26    50   1
    54    26    51   1
    55    27    52   1
    56    27    53   1
    57    31    54   1
    58    31    55   1
    59    33    56   1
    60    34    57   1
    61    35    58   1
    62    36    59   1
    63    37    60   1
@<TRIPOS>SUBSTRUCTURE
     1  MOL      2

