@<TRIPOS>MOLECULE
2qbp_ligand_018
    60    63
SMALL
GAST_HUCK
****
This file was generated by PARSER (from files_GN.cpp)

@<TRIPOS>ATOM
      1 S1         44.1347   14.9533    1.6074 S.3         1 MOL      -0.0382
      2 C2         44.6960   15.7924    3.0013 C.2         1 MOL       0.0813
      3 C3         45.6546   14.9763    3.6213 C.2         1 MOL       0.1014
      4 C4         45.8706   13.7469    2.9749 C.2         1 MOL       0.0465
      5 C5         45.0916   13.5433    1.8271 C.2         1 MOL       0.0450
      6 C6         44.2669   17.0642    3.4013 C.2         1 MOL       0.0555
      7 O7         43.9276   17.3082    4.6893 O.co2       1 MOL      -0.5699
      8 O8         44.0931   18.0551    2.4898 O.co2       1 MOL      -0.5699
      9 C9         45.1345   12.4057    1.0083 C.ar        1 MOL      -0.0166
     10 C10        46.1940   12.2465    0.0869 C.ar        1 MOL      -0.0362
     11 C11        46.4994   10.9774   -0.4587 C.ar        1 MOL       0.0383
     12 C12        45.6275    9.8984   -0.1690 C.ar        1 MOL      -0.0440
     13 C13        44.5082   10.0767    0.6672 C.ar        1 MOL      -0.0722
     14 C14        44.2822   11.3177    1.2859 C.ar        1 MOL      -0.0655
     15 BR19       47.1428   12.5204    3.5689 Br          1 MOL      -0.0668
     16 O20        46.3708   15.3210    4.7329 O.3         1 MOL      -0.3141
     17 C21        47.4583   16.2391    4.4899 C.3         1 MOL       0.1195
     18 C22        47.0557   17.5997    4.8730 C.2         1 MOL       0.0648
     19 O25        46.4636   17.8160    6.0688 O.co2       1 MOL      -0.5663
     20 O26        47.1082   18.6098    3.9847 O.co2       1 MOL      -0.5663
     21 N29        47.6768   10.8996   -1.1402 N.pl3       1 MOL      -0.3201
     22 C30        48.7385    9.9405   -0.9648 C.3         1 MOL       0.0379
     23 C31        49.4251   10.0922    0.4228 C.3         1 MOL      -0.0135
     24 C32        50.6725    9.1855    0.5268 C.3         1 MOL       0.0314
     25 N33        50.3544    7.8157    0.1924 N.am        1 MOL      -0.2365
     26 C34        49.6964    7.5564   -1.0694 C.3         1 MOL       0.0314
     27 C35        48.4372    8.4441   -1.2717 C.3         1 MOL      -0.0135
     28 S46        51.2853    6.6074    0.9321 S.o2        1 MOL       0.0512
     29 O47        52.5847    6.3294    0.0572 O.2         1 MOL      -0.1532
     30 O48        50.4977    5.2279    0.9995 O.2         1 MOL      -0.1532
     31 C49        51.6962    7.0279    2.6427 C.3         1 MOL       0.1181
     32 C50        52.3966    5.9228    3.3392 C.ar        1 MOL      -0.0204
     33 C53        51.8422    5.3210    4.4934 C.ar        1 MOL      -0.0587
     34 C54        52.5191    4.2802    5.1549 C.ar        1 MOL      -0.0685
     35 C55        53.7614    3.8309    4.6739 C.ar        1 MOL      -0.0687
     36 C56        54.3294    4.4265    3.5358 C.ar        1 MOL      -0.0685
     37 C57        53.6513    5.4637    2.8718 C.ar        1 MOL      -0.0587
     38 H1         46.8388   13.0308   -0.0675 H           1 MOL       0.0516
     39 H2         45.7693    8.9785   -0.5752 H           1 MOL       0.0521
     40 H3         43.8950    9.2845    0.8793 H           1 MOL       0.0585
     41 H4         43.5213   11.4086    1.9623 H           1 MOL       0.0520
     42 H5         47.8316   16.2247    3.4571 H           1 MOL       0.0780
     43 H6         48.2937   15.9445    5.1297 H           1 MOL       0.0780
     44 H7         47.9880   11.7441   -1.4950 H           1 MOL       0.1756
     45 H8         49.4878   10.2437   -1.7086 H           1 MOL       0.0548
     46 H9         48.7195    9.8217    1.2096 H           1 MOL       0.0303
     47 H10        49.7201   11.1355    0.5730 H           1 MOL       0.0303
     48 H11        51.0660    9.2922    1.5375 H           1 MOL       0.0479
     49 H12        51.4450    9.5488   -0.1574 H           1 MOL       0.0479
     50 H13        49.3746    6.5152   -1.1373 H           1 MOL       0.0479
     51 H14        50.4055    7.7383   -1.8757 H           1 MOL       0.0479
     52 H15        48.0806    8.3442   -2.3036 H           1 MOL       0.0303
     53 H16        47.6655    8.0623   -0.6114 H           1 MOL       0.0303
     54 H17        50.7623    7.2894    3.1493 H           1 MOL       0.0682
     55 H18        52.3264    7.9159    2.6633 H           1 MOL       0.0682
     56 H19        50.9419    5.6374    4.8611 H           1 MOL       0.0557
     57 H20        52.1093    3.8546    5.9904 H           1 MOL       0.0599
     58 H21        54.2510    3.0716    5.1550 H           1 MOL       0.0559
     59 H22        55.2409    4.1106    3.1949 H           1 MOL       0.0599
     60 H23        54.0846    5.8921    2.0487 H           1 MOL       0.0557
@<TRIPOS>BOND
     1     1     2   1
     2     1     5   1
     3     2     3   2
     4     2     6   1
     5     3     4   1
     6     3    16   1
     7     4     5   2
     8     4    15   1
     9     5     9   1
    10     6     7  ar
    11     6     8  ar
    12     9    10  ar
    13     9    14  ar
    14    10    11  ar
    15    11    12  ar
    16    11    21   1
    17    12    13  ar
    18    13    14  ar
    19    16    17   1
    20    17    18   1
    21    18    19  ar
    22    18    20  ar
    23    21    22   1
    24    22    23   1
    25    22    27   1
    26    23    24   1
    27    24    25   1
    28    25    26   1
    29    25    28  am
    30    26    27   1
    31    28    29   2
    32    28    30   2
    33    28    31   1
    34    31    32   1
    35    32    33  ar
    36    32    37  ar
    37    33    34  ar
    38    34    35  ar
    39    35    36  ar
    40    36    37  ar
    41    10    38   1
    42    12    39   1
    43    13    40   1
    44    14    41   1
    45    17    42   1
    46    17    43   1
    47    21    44   1
    48    22    45   1
    49    23    46   1
    50    23    47   1
    51    24    48   1
    52    24    49   1
    53    26    50   1
    54    26    51   1
    55    27    52   1
    56    27    53   1
    57    31    54   1
    58    31    55   1
    59    33    56   1
    60    34    57   1
    61    35    58   1
    62    36    59   1
    63    37    60   1
@<TRIPOS>SUBSTRUCTURE
     1  MOL      2

