@<TRIPOS>MOLECULE
2qbp_ligand_085
    60    63
SMALL
GAST_HUCK
****
This file was generated by PARSER (from files_GN.cpp)

@<TRIPOS>ATOM
      1 S1         47.2113   13.9476    4.2162 S.3         1 MOL      -0.0382
      2 C2         46.9506   15.6045    3.8214 C.2         1 MOL       0.0813
      3 C3         46.3460   15.6200    2.5630 C.2         1 MOL       0.1014
      4 C4         46.1647   14.3429    1.9799 C.2         1 MOL       0.0465
      5 C5         46.6166   13.2475    2.7546 C.2         1 MOL       0.0450
      6 C6         47.2653   16.6743    4.6560 C.2         1 MOL       0.0555
      7 O7         47.0614   16.5728    5.9887 O.co2       1 MOL      -0.5699
      8 O8         47.6872   17.8620    4.1598 O.co2       1 MOL      -0.5699
      9 C9         46.6693   11.8450    2.4697 C.ar        1 MOL      -0.0166
     10 C10        45.7156   11.1910    1.6450 C.ar        1 MOL      -0.0362
     11 C11        45.8257    9.8300    1.2781 C.ar        1 MOL       0.0383
     12 C12        46.8413    9.0667    1.8991 C.ar        1 MOL      -0.0440
     13 C13        47.7775    9.6691    2.7594 C.ar        1 MOL      -0.0722
     14 C14        47.7058   11.0441    3.0158 C.ar        1 MOL      -0.0655
     15 BR19       45.3570   14.2290    0.3007 Br          1 MOL      -0.0668
     16 O20        45.8593   16.7492    1.9495 O.3         1 MOL      -0.3141
     17 C21        44.8908   17.5715    2.6546 C.3         1 MOL       0.1195
     18 C22        44.0626   16.9446    3.6970 C.2         1 MOL       0.0648
     19 O25        44.0847   17.4047    4.9710 O.co2       1 MOL      -0.5663
     20 O26        43.5368   15.7070    3.4864 O.co2       1 MOL      -0.5663
     21 N29        45.0413    9.1500    0.3867 N.pl3       1 MOL      -0.3201
     22 C30        44.1299    9.5447   -0.6702 C.3         1 MOL       0.0379
     23 C31        44.2653   10.9878   -1.2536 C.3         1 MOL      -0.0135
     24 C32        43.4560   11.2220   -2.5515 C.3         1 MOL       0.0314
     25 N33        43.6969   10.1907   -3.5160 N.am        1 MOL      -0.2365
     26 C34        43.4838    8.8265   -3.0993 C.3         1 MOL       0.0314
     27 C35        44.3107    8.5070   -1.8264 C.3         1 MOL      -0.0135
     28 S46        43.6729   10.5929   -5.1570 S.o2        1 MOL       0.0512
     29 O47        44.4411    9.4800   -6.0069 O.2         1 MOL      -0.1532
     30 O48        44.6107   11.8612   -5.4115 O.2         1 MOL      -0.1532
     31 C49        42.0508   10.8746   -5.9059 C.3         1 MOL       0.1181
     32 C50        41.0443   11.2419   -4.8752 C.ar        1 MOL      -0.0204
     33 C53        40.2520   10.2483   -4.2628 C.ar        1 MOL      -0.0587
     34 C54        39.3191   10.5884   -3.2689 C.ar        1 MOL      -0.0685
     35 C55        39.1702   11.9313   -2.8774 C.ar        1 MOL      -0.0687
     36 C56        39.9530   12.9288   -3.4808 C.ar        1 MOL      -0.0685
     37 C57        40.8916   12.5891   -4.4709 C.ar        1 MOL      -0.0587
     38 H1         44.8957   11.7092    1.3795 H           1 MOL       0.0516
     39 H2         46.9350    8.0614    1.7128 H           1 MOL       0.0521
     40 H3         48.5226    9.1071    3.1852 H           1 MOL       0.0585
     41 H4         48.4216   11.4560    3.6197 H           1 MOL       0.0520
     42 H5         44.2104   17.9737    1.8998 H           1 MOL       0.0780
     43 H6         45.4195   18.4263    3.0836 H           1 MOL       0.0780
     44 H7         45.1816    8.1857    0.4168 H           1 MOL       0.1756
     45 H8         43.1145    9.4301   -0.2813 H           1 MOL       0.0548
     46 H9         45.3238   11.2002   -1.4357 H           1 MOL       0.0303
     47 H10        43.8779   11.7059   -0.5376 H           1 MOL       0.0303
     48 H11        43.7293   12.2060   -2.9335 H           1 MOL       0.0479
     49 H12        42.3892   11.2471   -2.3213 H           1 MOL       0.0479
     50 H13        43.7726    8.1182   -3.8820 H           1 MOL       0.0479
     51 H14        42.4204    8.6739   -2.8906 H           1 MOL       0.0479
     52 H15        44.0280    7.5076   -1.4774 H           1 MOL       0.0303
     53 H16        45.3662    8.4709   -2.1148 H           1 MOL       0.0303
     54 H17        41.7509    9.9617   -6.4363 H           1 MOL       0.0682
     55 H18        42.1471   11.6655   -6.6627 H           1 MOL       0.0682
     56 H19        40.3553    9.2696   -4.5303 H           1 MOL       0.0557
     57 H20        38.7614    9.8602   -2.8235 H           1 MOL       0.0599
     58 H21        38.4976   12.1755   -2.1429 H           1 MOL       0.0559
     59 H22        39.8444   13.9036   -3.1894 H           1 MOL       0.0599
     60 H23        41.4594   13.3264   -4.8898 H           1 MOL       0.0557
@<TRIPOS>BOND
     1     1     2   1
     2     1     5   1
     3     2     3   2
     4     2     6   1
     5     3     4   1
     6     3    16   1
     7     4     5   2
     8     4    15   1
     9     5     9   1
    10     6     7  ar
    11     6     8  ar
    12     9    10  ar
    13     9    14  ar
    14    10    11  ar
    15    11    12  ar
    16    11    21   1
    17    12    13  ar
    18    13    14  ar
    19    16    17   1
    20    17    18   1
    21    18    19  ar
    22    18    20  ar
    23    21    22   1
    24    22    23   1
    25    22    27   1
    26    23    24   1
    27    24    25   1
    28    25    26   1
    29    25    28  am
    30    26    27   1
    31    28    29   2
    32    28    30   2
    33    28    31   1
    34    31    32   1
    35    32    33  ar
    36    32    37  ar
    37    33    34  ar
    38    34    35  ar
    39    35    36  ar
    40    36    37  ar
    41    10    38   1
    42    12    39   1
    43    13    40   1
    44    14    41   1
    45    17    42   1
    46    17    43   1
    47    21    44   1
    48    22    45   1
    49    23    46   1
    50    23    47   1
    51    24    48   1
    52    24    49   1
    53    26    50   1
    54    26    51   1
    55    27    52   1
    56    27    53   1
    57    31    54   1
    58    31    55   1
    59    33    56   1
    60    34    57   1
    61    35    58   1
    62    36    59   1
    63    37    60   1
@<TRIPOS>SUBSTRUCTURE
     1  MOL      2

