@<TRIPOS>MOLECULE
2qbp_ligand_086
    60    63
SMALL
GAST_HUCK
****
This file was generated by PARSER (from files_GN.cpp)

@<TRIPOS>ATOM
      1 S1         43.7278   16.7911    1.3800 S.3         1 MOL      -0.0382
      2 C2         44.5011   16.4116    2.8574 C.2         1 MOL       0.0813
      3 C3         45.2470   15.2499    2.6425 C.2         1 MOL       0.1014
      4 C4         45.1038   14.6991    1.3508 C.2         1 MOL       0.0465
      5 C5         44.2767   15.4230    0.4663 C.2         1 MOL       0.0450
      6 C6         44.4985   17.2624    3.9568 C.2         1 MOL       0.0555
      7 O7         45.3482   18.3063    3.9720 O.co2       1 MOL      -0.5699
      8 O8         43.9534   16.8587    5.1322 O.co2       1 MOL      -0.5699
      9 C9         44.0200   15.2661   -0.9253 C.ar        1 MOL      -0.0166
     10 C10        43.7976   16.4023   -1.7485 C.ar        1 MOL      -0.0362
     11 C11        43.7415   16.3115   -3.1598 C.ar        1 MOL       0.0383
     12 C12        43.8182   15.0372   -3.7556 C.ar        1 MOL      -0.0440
     13 C13        43.9479   13.8888   -2.9657 C.ar        1 MOL      -0.0722
     14 C14        44.0376   13.9976   -1.5614 C.ar        1 MOL      -0.0655
     15 BR19       46.1560   13.2415    0.8446 Br          1 MOL      -0.0668
     16 O20        46.0631   14.7133    3.6153 O.3         1 MOL      -0.3141
     17 C21        47.3745   15.3065    3.7124 C.3         1 MOL       0.1195
     18 C22        47.3760   16.6186    4.3813 C.2         1 MOL       0.0648
     19 O25        46.9700   16.7291    5.6578 O.co2       1 MOL      -0.5663
     20 O26        47.7034   17.7507    3.7187 O.co2       1 MOL      -0.5663
     21 N29        43.6185   17.4873   -3.8290 N.pl3       1 MOL      -0.3201
     22 C30        44.6283   18.1336   -4.6251 C.3         1 MOL       0.0379
     23 C31        45.4205   19.0573   -3.6596 C.3         1 MOL      -0.0135
     24 C32        46.4885   19.8951   -4.4043 C.3         1 MOL       0.0314
     25 N33        47.3332   19.0834   -5.2425 N.am        1 MOL      -0.2365
     26 C34        46.7106   18.1463   -6.1440 C.3         1 MOL       0.0314
     27 C35        45.6332   17.2730   -5.4443 C.3         1 MOL      -0.0135
     28 S46        48.8565   19.6980   -5.6774 S.o2        1 MOL       0.0512
     29 O47        49.8612   18.4932   -5.9252 O.2         1 MOL      -0.1532
     30 O48        49.5169   20.4406   -4.4333 O.2         1 MOL      -0.1532
     31 C49        48.8575   20.7993   -7.1102 C.3         1 MOL       0.1181
     32 C50        47.7050   21.7332   -7.0750 C.ar        1 MOL      -0.0204
     33 C53        46.5284   21.4669   -7.8183 C.ar        1 MOL      -0.0587
     34 C54        45.4051   22.3132   -7.7139 C.ar        1 MOL      -0.0685
     35 C55        45.4495   23.4418   -6.8750 C.ar        1 MOL      -0.0687
     36 C56        46.6200   23.7328   -6.1572 C.ar        1 MOL      -0.0685
     37 C57        47.7405   22.8910   -6.2612 C.ar        1 MOL      -0.0587
     38 H1         43.7799   17.3364   -1.3290 H           1 MOL       0.0516
     39 H2         43.7202   14.9375   -4.7685 H           1 MOL       0.0521
     40 H3         43.9829   12.9681   -3.4086 H           1 MOL       0.0585
     41 H4         44.0985   13.1425   -1.0181 H           1 MOL       0.0520
     42 H5         47.8597   15.3783    2.7341 H           1 MOL       0.0780
     43 H6         47.9866   14.6321    4.3242 H           1 MOL       0.0780
     44 H7         43.0309   18.1267   -3.3921 H           1 MOL       0.1756
     45 H8         44.0892   18.7666   -5.3273 H           1 MOL       0.0548
     46 H9         45.9199   18.4573   -2.8891 H           1 MOL       0.0303
     47 H10        44.7379   19.7493   -3.1473 H           1 MOL       0.0303
     48 H11        47.0758   20.4286   -3.6456 H           1 MOL       0.0479
     49 H12        45.9828   20.6424   -5.0208 H           1 MOL       0.0479
     50 H13        47.4521   17.4648   -6.5771 H           1 MOL       0.0479
     51 H14        46.2460   18.6989   -6.9644 H           1 MOL       0.0479
     52 H15        45.0913   16.7090   -6.2089 H           1 MOL       0.0303
     53 H16        46.1413   16.5647   -4.7847 H           1 MOL       0.0303
     54 H17        48.8373   20.1741   -8.0059 H           1 MOL       0.0682
     55 H18        49.7924   21.3654   -7.1251 H           1 MOL       0.0682
     56 H19        46.4683   20.6438   -8.4225 H           1 MOL       0.0557
     57 H20        44.5531   22.0990   -8.2396 H           1 MOL       0.0599
     58 H21        44.6290   24.0457   -6.7871 H           1 MOL       0.0559
     59 H22        46.6534   24.5545   -5.5462 H           1 MOL       0.0599
     60 H23        48.5792   23.1131   -5.7203 H           1 MOL       0.0557
@<TRIPOS>BOND
     1     1     2   1
     2     1     5   1
     3     2     3   2
     4     2     6   1
     5     3     4   1
     6     3    16   1
     7     4     5   2
     8     4    15   1
     9     5     9   1
    10     6     7  ar
    11     6     8  ar
    12     9    10  ar
    13     9    14  ar
    14    10    11  ar
    15    11    12  ar
    16    11    21   1
    17    12    13  ar
    18    13    14  ar
    19    16    17   1
    20    17    18   1
    21    18    19  ar
    22    18    20  ar
    23    21    22   1
    24    22    23   1
    25    22    27   1
    26    23    24   1
    27    24    25   1
    28    25    26   1
    29    25    28  am
    30    26    27   1
    31    28    29   2
    32    28    30   2
    33    28    31   1
    34    31    32   1
    35    32    33  ar
    36    32    37  ar
    37    33    34  ar
    38    34    35  ar
    39    35    36  ar
    40    36    37  ar
    41    10    38   1
    42    12    39   1
    43    13    40   1
    44    14    41   1
    45    17    42   1
    46    17    43   1
    47    21    44   1
    48    22    45   1
    49    23    46   1
    50    23    47   1
    51    24    48   1
    52    24    49   1
    53    26    50   1
    54    26    51   1
    55    27    52   1
    56    27    53   1
    57    31    54   1
    58    31    55   1
    59    33    56   1
    60    34    57   1
    61    35    58   1
    62    36    59   1
    63    37    60   1
@<TRIPOS>SUBSTRUCTURE
     1  MOL      2

