@<TRIPOS>MOLECULE
2qbp_ligand_061
    60    63
SMALL
GAST_HUCK
****
This file was generated by PARSER (from files_GN.cpp)

@<TRIPOS>ATOM
      1 S1         45.7408   13.6927    2.8959 S.3         1 MOL      -0.0382
      2 C2         45.6330   15.0718    3.9023 C.2         1 MOL       0.0813
      3 C3         45.1951   16.1249    3.0934 C.2         1 MOL       0.1014
      4 C4         44.8512   15.7248    1.7792 C.2         1 MOL       0.0465
      5 C5         45.1469   14.3847    1.4341 C.2         1 MOL       0.0450
      6 C6         45.9194   15.0227    5.2688 C.2         1 MOL       0.0555
      7 O7         46.6741   15.9358    5.9065 O.co2       1 MOL      -0.5699
      8 O8         45.3929   14.0464    6.0314 O.co2       1 MOL      -0.5699
      9 C9         45.0904   13.6491    0.1948 C.ar        1 MOL      -0.0166
     10 C10        45.0304   12.2268    0.1943 C.ar        1 MOL      -0.0362
     11 C11        45.2411   11.4650   -0.9751 C.ar        1 MOL       0.0383
     12 C12        45.2629   12.1386   -2.2102 C.ar        1 MOL      -0.0440
     13 C13        45.2615   13.5401   -2.2604 C.ar        1 MOL      -0.0722
     14 C14        45.2281   14.2822   -1.0651 C.ar        1 MOL      -0.0655
     15 BR19       43.9346   16.9142    0.6765 Br          1 MOL      -0.0668
     16 O20        44.9959   17.4069    3.5680 O.3         1 MOL      -0.3141
     17 C21        46.1601   18.2643    3.5087 C.3         1 MOL       0.1195
     18 C22        46.9245   18.2378    4.7711 C.2         1 MOL       0.0648
     19 O25        48.2793   18.3391    4.7949 O.co2       1 MOL      -0.5663
     20 O26        46.3041   17.9391    5.9388 O.co2       1 MOL      -0.5663
     21 N29        45.5459   10.1385   -1.0033 N.pl3       1 MOL      -0.3201
     22 C30        46.0800    9.2909    0.0370 C.3         1 MOL       0.0379
     23 C31        46.7750    8.0937   -0.6935 C.3         1 MOL      -0.0135
     24 C32        47.7252    7.2518    0.1996 C.3         1 MOL       0.0314
     25 N33        48.6126    8.1285    0.9183 N.am        1 MOL      -0.2365
     26 C34        47.9898    9.0750    1.8006 C.3         1 MOL       0.0314
     27 C35        47.0813   10.0299    0.9898 C.3         1 MOL      -0.0135
     28 S46        50.2143    8.3494    0.3920 S.o2        1 MOL       0.0512
     29 O47        50.9728    6.9587    0.5509 O.2         1 MOL      -0.1532
     30 O48        51.0134    9.2550    1.4328 O.2         1 MOL      -0.1532
     31 C49        50.5316    8.9565   -1.2855 C.3         1 MOL       0.1181
     32 C50        50.0684   10.3486   -1.5342 C.ar        1 MOL      -0.0204
     33 C53        48.9977   10.6116   -2.4214 C.ar        1 MOL      -0.0587
     34 C54        48.5645   11.9326   -2.6651 C.ar        1 MOL      -0.0685
     35 C55        49.2040   13.0115   -2.0278 C.ar        1 MOL      -0.0687
     36 C56        50.2866   12.7713   -1.1691 C.ar        1 MOL      -0.0685
     37 C57        50.7285   11.4491   -0.9358 C.ar        1 MOL      -0.0587
     38 H1         44.8860   11.7399    1.0657 H           1 MOL       0.0516
     39 H2         45.3767   11.6228   -3.0905 H           1 MOL       0.0521
     40 H3         45.3537   14.0287   -3.1550 H           1 MOL       0.0585
     41 H4         45.3394   15.2904   -1.1466 H           1 MOL       0.0520
     42 H5         45.8011   19.2947    3.3622 H           1 MOL       0.0780
     43 H6         46.8266   18.0440    2.6628 H           1 MOL       0.0780
     44 H7         45.5655    9.7581   -1.8983 H           1 MOL       0.1756
     45 H8         45.2574    8.8973    0.6384 H           1 MOL       0.0548
     46 H9         47.3831    8.4722   -1.5207 H           1 MOL       0.0303
     47 H10        46.0200    7.4361   -1.1292 H           1 MOL       0.0303
     48 H11        48.2805    6.5357   -0.4236 H           1 MOL       0.0479
     49 H12        47.1373    6.6644    0.9133 H           1 MOL       0.0479
     50 H13        48.7230    9.6599    2.3579 H           1 MOL       0.0479
     51 H14        47.3943    8.5291    2.5422 H           1 MOL       0.0479
     52 H15        46.5424   10.6394    1.7097 H           1 MOL       0.0303
     53 H16        47.7134   10.6946    0.4048 H           1 MOL       0.0303
     54 H17        50.0509    8.2580   -1.9736 H           1 MOL       0.0682
     55 H18        51.6067    8.9121   -1.4698 H           1 MOL       0.0682
     56 H19        48.5317    9.8486   -2.9188 H           1 MOL       0.0557
     57 H20        47.8008   12.1069   -3.3197 H           1 MOL       0.0599
     58 H21        48.8856   13.9685   -2.2016 H           1 MOL       0.0559
     59 H22        50.7680   13.5565   -0.7300 H           1 MOL       0.0599
     60 H23        51.5319   11.3007   -0.3249 H           1 MOL       0.0557
@<TRIPOS>BOND
     1     1     2   1
     2     1     5   1
     3     2     3   2
     4     2     6   1
     5     3     4   1
     6     3    16   1
     7     4     5   2
     8     4    15   1
     9     5     9   1
    10     6     7  ar
    11     6     8  ar
    12     9    10  ar
    13     9    14  ar
    14    10    11  ar
    15    11    12  ar
    16    11    21   1
    17    12    13  ar
    18    13    14  ar
    19    16    17   1
    20    17    18   1
    21    18    19  ar
    22    18    20  ar
    23    21    22   1
    24    22    23   1
    25    22    27   1
    26    23    24   1
    27    24    25   1
    28    25    26   1
    29    25    28  am
    30    26    27   1
    31    28    29   2
    32    28    30   2
    33    28    31   1
    34    31    32   1
    35    32    33  ar
    36    32    37  ar
    37    33    34  ar
    38    34    35  ar
    39    35    36  ar
    40    36    37  ar
    41    10    38   1
    42    12    39   1
    43    13    40   1
    44    14    41   1
    45    17    42   1
    46    17    43   1
    47    21    44   1
    48    22    45   1
    49    23    46   1
    50    23    47   1
    51    24    48   1
    52    24    49   1
    53    26    50   1
    54    26    51   1
    55    27    52   1
    56    27    53   1
    57    31    54   1
    58    31    55   1
    59    33    56   1
    60    34    57   1
    61    35    58   1
    62    36    59   1
    63    37    60   1
@<TRIPOS>SUBSTRUCTURE
     1  MOL      2

