@<TRIPOS>MOLECULE
2qbp_ligand_038
    60    63
SMALL
GAST_HUCK
****
This file was generated by PARSER (from files_GN.cpp)

@<TRIPOS>ATOM
      1 S1         44.6921   17.5357    1.6983 S.3         1 MOL      -0.0382
      2 C2         45.4633   17.0052    3.1481 C.2         1 MOL       0.0813
      3 C3         45.7195   15.6339    3.0147 C.2         1 MOL       0.1014
      4 C4         45.2727   15.1020    1.7877 C.2         1 MOL       0.0465
      5 C5         44.6737   16.0164    0.9001 C.2         1 MOL       0.0450
      6 C6         45.7635   17.8724    4.2021 C.2         1 MOL       0.0555
      7 O7         45.0045   17.8971    5.3283 O.co2       1 MOL      -0.5699
      8 O8         46.8639   18.6563    4.1321 O.co2       1 MOL      -0.5699
      9 C9         44.1437   15.7636   -0.3820 C.ar        1 MOL      -0.0166
     10 C10        44.8604   14.9737   -1.3062 C.ar        1 MOL      -0.0362
     11 C11        44.2488   14.4669   -2.4790 C.ar        1 MOL       0.0383
     12 C12        42.9253   14.8640   -2.7813 C.ar        1 MOL      -0.0440
     13 C13        42.2460   15.7666   -1.9488 C.ar        1 MOL      -0.0722
     14 C14        42.8460   16.2076   -0.7483 C.ar        1 MOL      -0.0655
     15 BR19       45.4004   13.2670    1.4492 Br          1 MOL      -0.0668
     16 O20        46.3363   14.7945    3.9033 O.3         1 MOL      -0.3141
     17 C21        47.3672   15.2532    4.8070 C.3         1 MOL       0.1195
     18 C22        48.3861   16.1715    4.2707 C.2         1 MOL       0.0648
     19 O25        48.9808   17.0764    5.0927 O.co2       1 MOL      -0.5663
     20 O26        48.6424   16.2384    2.9382 O.co2       1 MOL      -0.5663
     21 N29        44.9554   13.5537   -3.1930 N.pl3       1 MOL      -0.3201
     22 C30        44.5887   12.1612   -3.3242 C.3         1 MOL       0.0379
     23 C31        44.0503   11.5730   -1.9897 C.3         1 MOL      -0.0135
     24 C32        43.8363   10.0506   -2.0878 C.3         1 MOL       0.0314
     25 N33        43.0796    9.6816   -3.2507 N.am        1 MOL      -0.2365
     26 C34        43.4551   10.2320   -4.5379 C.3         1 MOL       0.0314
     27 C35        43.6234   11.7807   -4.4825 C.3         1 MOL      -0.0135
     28 S46        42.2323    8.2139   -3.2212 S.o2        1 MOL       0.0512
     29 O47        42.0859    7.6829   -1.7294 O.2         1 MOL      -0.1532
     30 O48        43.0439    7.0727   -3.9765 O.2         1 MOL      -0.1532
     31 C49        40.5426    8.3086   -3.8610 C.3         1 MOL       0.1181
     32 C50        39.9984    9.6895   -3.7971 C.ar        1 MOL      -0.0204
     33 C53        39.5649   10.2440   -2.5670 C.ar        1 MOL      -0.0587
     34 C54        39.0917   11.5688   -2.5038 C.ar        1 MOL      -0.0685
     35 C55        39.0467   12.3571   -3.6648 C.ar        1 MOL      -0.0687
     36 C56        39.4609   11.8179   -4.8954 C.ar        1 MOL      -0.0685
     37 C57        39.9289   10.4924   -4.9615 C.ar        1 MOL      -0.0587
     38 H1         45.8094   14.6766   -1.0818 H           1 MOL       0.0516
     39 H2         42.4687   14.5470   -3.6406 H           1 MOL       0.0521
     40 H3         41.3019   16.0796   -2.1942 H           1 MOL       0.0585
     41 H4         42.3120   16.8165   -0.1270 H           1 MOL       0.0520
     42 H5         47.8992   14.3613    5.1598 H           1 MOL       0.0780
     43 H6         46.9000   15.7075    5.6885 H           1 MOL       0.0780
     44 H7         45.9275   13.6730   -3.1359 H           1 MOL       0.1756
     45 H8         45.5317   11.6630   -3.5450 H           1 MOL       0.0548
     46 H9         43.0965   12.0574   -1.7403 H           1 MOL       0.0303
     47 H10        44.7573   11.7979   -1.1887 H           1 MOL       0.0303
     48 H11        43.3362    9.7562   -1.1673 H           1 MOL       0.0479
     49 H12        44.8049    9.5559   -2.1188 H           1 MOL       0.0479
     50 H13        42.7131   10.0000   -5.3086 H           1 MOL       0.0479
     51 H14        44.3973    9.7808   -4.8576 H           1 MOL       0.0479
     52 H15        44.0123   12.1440   -5.4455 H           1 MOL       0.0303
     53 H16        42.6290   12.2166   -4.3333 H           1 MOL       0.0303
     54 H17        39.9009    7.6322   -3.2882 H           1 MOL       0.0682
     55 H18        40.5619    7.9387   -4.8902 H           1 MOL       0.0682
     56 H19        39.5977    9.6846   -1.7124 H           1 MOL       0.0557
     57 H20        38.7913   11.9574   -1.6094 H           1 MOL       0.0599
     58 H21        38.7108   13.3198   -3.6151 H           1 MOL       0.0559
     59 H22        39.4266   12.3915   -5.7412 H           1 MOL       0.0599
     60 H23        40.2362   10.1252   -5.8659 H           1 MOL       0.0557
@<TRIPOS>BOND
     1     1     2   1
     2     1     5   1
     3     2     3   2
     4     2     6   1
     5     3     4   1
     6     3    16   1
     7     4     5   2
     8     4    15   1
     9     5     9   1
    10     6     7  ar
    11     6     8  ar
    12     9    10  ar
    13     9    14  ar
    14    10    11  ar
    15    11    12  ar
    16    11    21   1
    17    12    13  ar
    18    13    14  ar
    19    16    17   1
    20    17    18   1
    21    18    19  ar
    22    18    20  ar
    23    21    22   1
    24    22    23   1
    25    22    27   1
    26    23    24   1
    27    24    25   1
    28    25    26   1
    29    25    28  am
    30    26    27   1
    31    28    29   2
    32    28    30   2
    33    28    31   1
    34    31    32   1
    35    32    33  ar
    36    32    37  ar
    37    33    34  ar
    38    34    35  ar
    39    35    36  ar
    40    36    37  ar
    41    10    38   1
    42    12    39   1
    43    13    40   1
    44    14    41   1
    45    17    42   1
    46    17    43   1
    47    21    44   1
    48    22    45   1
    49    23    46   1
    50    23    47   1
    51    24    48   1
    52    24    49   1
    53    26    50   1
    54    26    51   1
    55    27    52   1
    56    27    53   1
    57    31    54   1
    58    31    55   1
    59    33    56   1
    60    34    57   1
    61    35    58   1
    62    36    59   1
    63    37    60   1
@<TRIPOS>SUBSTRUCTURE
     1  MOL      2

