@<TRIPOS>MOLECULE
2qbp_ligand_051
    60    63
SMALL
GAST_HUCK
****
This file was generated by PARSER (from files_GN.cpp)

@<TRIPOS>ATOM
      1 S1         47.2379   13.6815    4.1544 S.3         1 MOL      -0.0382
      2 C2         47.0539   15.3815    3.9606 C.2         1 MOL       0.0813
      3 C3         46.2940   15.5867    2.7999 C.2         1 MOL       0.1014
      4 C4         45.9247   14.3956    2.1411 C.2         1 MOL       0.0465
      5 C5         46.3652   13.1945    2.7531 C.2         1 MOL       0.0450
      6 C6         47.6195   16.3365    4.8175 C.2         1 MOL       0.0555
      7 O7         46.8749   16.8399    5.8373 O.co2       1 MOL      -0.5699
      8 O8         48.9725   16.4300    4.9040 O.co2       1 MOL      -0.5699
      9 C9         46.2927   11.8554    2.2853 C.ar        1 MOL      -0.0166
     10 C10        47.4179   11.0078    2.4119 C.ar        1 MOL      -0.0362
     11 C11        47.4828    9.7506    1.7806 C.ar        1 MOL       0.0383
     12 C12        46.3715    9.3151    1.0309 C.ar        1 MOL      -0.0440
     13 C13        45.1988   10.0902    0.9771 C.ar        1 MOL      -0.0722
     14 C14        45.1682   11.3611    1.5879 C.ar        1 MOL      -0.0655
     15 BR19       44.9718   14.4893    0.5229 Br          1 MOL      -0.0668
     16 O20        45.9646   16.7908    2.2607 O.3         1 MOL      -0.3141
     17 C21        45.1947   17.7116    3.0602 C.3         1 MOL       0.1195
     18 C22        44.3651   17.1777    4.1624 C.2         1 MOL       0.0648
     19 O25        44.4090   17.7797    5.3806 O.co2       1 MOL      -0.5663
     20 O26        43.8421   15.9191    4.1074 O.co2       1 MOL      -0.5663
     21 N29        48.6633    9.0931    1.8623 N.pl3       1 MOL      -0.3201
     22 C30        49.2709    8.2733    0.8465 C.3         1 MOL       0.0379
     23 C31        50.8100    8.4118    0.9688 C.3         1 MOL      -0.0135
     24 C32        51.3388    7.6963    2.2362 C.3         1 MOL       0.0314
     25 N33        50.9735    6.3096    2.1601 N.am        1 MOL      -0.2365
     26 C34        49.5644    6.0070    2.0858 C.3         1 MOL       0.0314
     27 C35        48.8603    6.7723    0.9341 C.3         1 MOL      -0.0135
     28 S46        52.1230    5.1707    1.6357 S.o2        1 MOL       0.0512
     29 O47        53.5902    5.8014    1.6380 O.2         1 MOL      -0.1532
     30 O48        51.8585    4.7819    0.1153 O.2         1 MOL      -0.1532
     31 C49        52.2788    3.6744    2.6403 C.3         1 MOL       0.1181
     32 C50        52.2774    3.9952    4.0866 C.ar        1 MOL      -0.0204
     33 C53        53.4840    4.0788    4.8216 C.ar        1 MOL      -0.0587
     34 C54        53.4605    4.3559    6.2024 C.ar        1 MOL      -0.0685
     35 C55        52.2319    4.5643    6.8579 C.ar        1 MOL      -0.0687
     36 C56        51.0284    4.5124    6.1328 C.ar        1 MOL      -0.0685
     37 C57        51.0535    4.2221    4.7562 C.ar        1 MOL      -0.0587
     38 H1         48.2451   11.3471    2.9188 H           1 MOL       0.0516
     39 H2         46.3849    8.4077    0.5597 H           1 MOL       0.0521
     40 H3         44.3792    9.7429    0.4712 H           1 MOL       0.0585
     41 H4         44.3016   11.9083    1.5146 H           1 MOL       0.0520
     42 H5         44.5143   18.2243    2.3797 H           1 MOL       0.0780
     43 H6         45.8791   18.4696    3.4546 H           1 MOL       0.0780
     44 H7         49.2713    9.4308    2.5479 H           1 MOL       0.1756
     45 H8         48.9781    8.6620   -0.1231 H           1 MOL       0.0548
     46 H9         51.1053    9.4692    0.9981 H           1 MOL       0.0303
     47 H10        51.2865    7.9726    0.0852 H           1 MOL       0.0303
     48 H11        50.8914    8.1268    3.1324 H           1 MOL       0.0479
     49 H12        52.4133    7.8487    2.3289 H           1 MOL       0.0479
     50 H13        49.1067    6.2957    3.0319 H           1 MOL       0.0479
     51 H14        49.3798    4.9344    1.9545 H           1 MOL       0.0479
     52 H15        49.1235    6.2926   -0.0167 H           1 MOL       0.0303
     53 H16        47.7759    6.6821    1.0508 H           1 MOL       0.0303
     54 H17        53.2059    3.1679    2.3479 H           1 MOL       0.0682
     55 H18        51.4532    2.9983    2.3967 H           1 MOL       0.0682
     56 H19        54.3821    3.9296    4.3645 H           1 MOL       0.0557
     57 H20        54.3320    4.4004    6.7353 H           1 MOL       0.0599
     58 H21        52.2082    4.7490    7.8692 H           1 MOL       0.0559
     59 H22        50.1354    4.6693    6.6116 H           1 MOL       0.0599
     60 H23        50.1662    4.1676    4.2557 H           1 MOL       0.0557
@<TRIPOS>BOND
     1     1     2   1
     2     1     5   1
     3     2     3   2
     4     2     6   1
     5     3     4   1
     6     3    16   1
     7     4     5   2
     8     4    15   1
     9     5     9   1
    10     6     7  ar
    11     6     8  ar
    12     9    10  ar
    13     9    14  ar
    14    10    11  ar
    15    11    12  ar
    16    11    21   1
    17    12    13  ar
    18    13    14  ar
    19    16    17   1
    20    17    18   1
    21    18    19  ar
    22    18    20  ar
    23    21    22   1
    24    22    23   1
    25    22    27   1
    26    23    24   1
    27    24    25   1
    28    25    26   1
    29    25    28  am
    30    26    27   1
    31    28    29   2
    32    28    30   2
    33    28    31   1
    34    31    32   1
    35    32    33  ar
    36    32    37  ar
    37    33    34  ar
    38    34    35  ar
    39    35    36  ar
    40    36    37  ar
    41    10    38   1
    42    12    39   1
    43    13    40   1
    44    14    41   1
    45    17    42   1
    46    17    43   1
    47    21    44   1
    48    22    45   1
    49    23    46   1
    50    23    47   1
    51    24    48   1
    52    24    49   1
    53    26    50   1
    54    26    51   1
    55    27    52   1
    56    27    53   1
    57    31    54   1
    58    31    55   1
    59    33    56   1
    60    34    57   1
    61    35    58   1
    62    36    59   1
    63    37    60   1
@<TRIPOS>SUBSTRUCTURE
     1  MOL      2

