@<TRIPOS>MOLECULE
2qbp_ligand_075
    60    63
SMALL
GAST_HUCK
****
This file was generated by PARSER (from files_GN.cpp)

@<TRIPOS>ATOM
      1 S1         44.0697   15.4901    2.9183 S.3         1 MOL      -0.0382
      2 C2         45.3507   15.6796    4.0493 C.2         1 MOL       0.0813
      3 C3         46.4351   14.9305    3.5756 C.2         1 MOL       0.1014
      4 C4         46.1722   14.2089    2.3920 C.2         1 MOL       0.0465
      5 C5         44.8918   14.4219    1.8496 C.2         1 MOL       0.0450
      6 C6         45.2917   16.5108    5.1757 C.2         1 MOL       0.0555
      7 O7         46.4036   16.9860    5.7791 O.co2       1 MOL      -0.5699
      8 O8         44.1088   16.9872    5.6125 O.co2       1 MOL      -0.5699
      9 C9         44.3697   13.9581    0.6166 C.ar        1 MOL      -0.0166
     10 C10        44.4280   12.5902    0.2743 C.ar        1 MOL      -0.0362
     11 C11        44.1650   12.1416   -1.0383 C.ar        1 MOL       0.0383
     12 C12        43.7062   13.0879   -1.9891 C.ar        1 MOL      -0.0440
     13 C13        43.5428   14.4376   -1.6303 C.ar        1 MOL      -0.0722
     14 C14        43.8810   14.8783   -0.3418 C.ar        1 MOL      -0.0655
     15 BR19       47.4808   13.1682    1.5637 Br          1 MOL      -0.0668
     16 O20        47.6352   14.9145    4.2318 O.3         1 MOL      -0.3141
     17 C21        48.5947   15.9317    3.8691 C.3         1 MOL       0.1195
     18 C22        48.0783   17.3023    3.7545 C.2         1 MOL       0.0648
     19 O25        47.1223   17.5906    2.8420 O.co2       1 MOL      -0.5663
     20 O26        48.3808   18.2201    4.6982 O.co2       1 MOL      -0.5663
     21 N29        44.4428   10.8359   -1.2905 N.pl3       1 MOL      -0.3201
     22 C30        44.8040   10.2183   -2.5325 C.3         1 MOL       0.0379
     23 C31        46.3587   10.2057   -2.6262 C.3         1 MOL      -0.0135
     24 C32        46.8537    9.4069   -3.8521 C.3         1 MOL       0.0314
     25 N33        46.2263    8.1175   -3.9622 N.am        1 MOL      -0.2365
     26 C34        44.7913    8.0197   -3.8396 C.3         1 MOL       0.0314
     27 C35        44.2664    8.7658   -2.5852 C.3         1 MOL      -0.0135
     28 S46        47.0615    6.9285   -4.8393 S.o2        1 MOL       0.0512
     29 O47        47.3845    7.4689   -6.2992 O.2         1 MOL      -0.1532
     30 O48        46.1632    5.6343   -5.0934 O.2         1 MOL      -0.1532
     31 C49        48.5794    6.3518   -4.0562 C.3         1 MOL       0.1181
     32 C50        48.3097    5.6805   -2.7597 C.ar        1 MOL      -0.0204
     33 C53        48.2492    6.4304   -1.5618 C.ar        1 MOL      -0.0587
     34 C54        48.0078    5.7970   -0.3283 C.ar        1 MOL      -0.0685
     35 C55        47.8313    4.4019   -0.2758 C.ar        1 MOL      -0.0687
     36 C56        47.8763    3.6448   -1.4592 C.ar        1 MOL      -0.0685
     37 C57        48.1196    4.2788   -2.6921 C.ar        1 MOL      -0.0587
     38 H1         44.7518   11.9170    0.9776 H           1 MOL       0.0516
     39 H2         43.4926   12.8131   -2.9417 H           1 MOL       0.0521
     40 H3         43.2072   15.1139   -2.3263 H           1 MOL       0.0585
     41 H4         43.8128   15.8788   -0.1235 H           1 MOL       0.0520
     42 H5         49.1055   15.6664    2.9377 H           1 MOL       0.0780
     43 H6         49.3461   15.9334    4.6623 H           1 MOL       0.0780
     44 H7         44.6096   10.2882   -0.5100 H           1 MOL       0.1756
     45 H8         44.4141   10.7548   -3.3990 H           1 MOL       0.0548
     46 H9         46.7720    9.7568   -1.7130 H           1 MOL       0.0303
     47 H10        46.7246   11.2326   -2.6921 H           1 MOL       0.0303
     48 H11        47.9397    9.3080   -3.7572 H           1 MOL       0.0479
     49 H12        46.6502    9.9794   -4.7575 H           1 MOL       0.0479
     50 H13        44.4570    6.9851   -3.7681 H           1 MOL       0.0479
     51 H14        44.3331    8.4557   -4.7361 H           1 MOL       0.0479
     52 H15        43.1668    8.7779   -2.6106 H           1 MOL       0.0303
     53 H16        44.5753    8.2127   -1.6893 H           1 MOL       0.0303
     54 H17        49.2506    7.2028   -3.8985 H           1 MOL       0.0682
     55 H18        49.0827    5.6746   -4.7533 H           1 MOL       0.0682
     56 H19        48.3848    7.4404   -1.5781 H           1 MOL       0.0557
     57 H20        47.9621    6.3504    0.5310 H           1 MOL       0.0599
     58 H21        47.6585    3.9401    0.6214 H           1 MOL       0.0559
     59 H22        47.7384    2.6316   -1.4232 H           1 MOL       0.0599
     60 H23        48.1489    3.7090   -3.5418 H           1 MOL       0.0557
@<TRIPOS>BOND
     1     1     2   1
     2     1     5   1
     3     2     3   2
     4     2     6   1
     5     3     4   1
     6     3    16   1
     7     4     5   2
     8     4    15   1
     9     5     9   1
    10     6     7  ar
    11     6     8  ar
    12     9    10  ar
    13     9    14  ar
    14    10    11  ar
    15    11    12  ar
    16    11    21   1
    17    12    13  ar
    18    13    14  ar
    19    16    17   1
    20    17    18   1
    21    18    19  ar
    22    18    20  ar
    23    21    22   1
    24    22    23   1
    25    22    27   1
    26    23    24   1
    27    24    25   1
    28    25    26   1
    29    25    28  am
    30    26    27   1
    31    28    29   2
    32    28    30   2
    33    28    31   1
    34    31    32   1
    35    32    33  ar
    36    32    37  ar
    37    33    34  ar
    38    34    35  ar
    39    35    36  ar
    40    36    37  ar
    41    10    38   1
    42    12    39   1
    43    13    40   1
    44    14    41   1
    45    17    42   1
    46    17    43   1
    47    21    44   1
    48    22    45   1
    49    23    46   1
    50    23    47   1
    51    24    48   1
    52    24    49   1
    53    26    50   1
    54    26    51   1
    55    27    52   1
    56    27    53   1
    57    31    54   1
    58    31    55   1
    59    33    56   1
    60    34    57   1
    61    35    58   1
    62    36    59   1
    63    37    60   1
@<TRIPOS>SUBSTRUCTURE
     1  MOL      2

