@<TRIPOS>MOLECULE
2qbp_ligand_005
    60    63
SMALL
GAST_HUCK
****
This file was generated by PARSER (from files_GN.cpp)

@<TRIPOS>ATOM
      1 S1         44.5564   14.3459    0.1038 S.3         1 MOL      -0.0382
      2 C2         44.9916   15.6796    1.1010 C.2         1 MOL       0.0813
      3 C3         45.8054   15.1763    2.1289 C.2         1 MOL       0.1014
      4 C4         46.0585   13.7889    2.0406 C.2         1 MOL       0.0465
      5 C5         45.4022   13.1329    0.9812 C.2         1 MOL       0.0450
      6 C6         44.4961   16.9861    0.9291 C.2         1 MOL       0.0555
      7 O7         44.4353   17.5299   -0.3077 O.co2       1 MOL      -0.5699
      8 O8         43.9914   17.7169    1.9534 O.co2       1 MOL      -0.5699
      9 C9         45.2656   11.7448    0.7082 C.ar        1 MOL      -0.0166
     10 C10        46.2018   10.7841    1.1693 C.ar        1 MOL      -0.0362
     11 C11        45.9066    9.3921    1.1231 C.ar        1 MOL       0.0383
     12 C12        44.6999    8.9502    0.5225 C.ar        1 MOL      -0.0440
     13 C13        43.8040    9.8902   -0.0306 C.ar        1 MOL      -0.0722
     14 C14        44.0972   11.2654    0.0410 C.ar        1 MOL      -0.0655
     15 BR19       47.0709   12.8776    3.3124 Br          1 MOL      -0.0668
     16 O20        46.2987   15.9693    3.1306 O.3         1 MOL      -0.3141
     17 C21        45.7582   15.7265    4.4467 C.3         1 MOL       0.1195
     18 C22        45.4166   17.0000    5.0881 C.2         1 MOL       0.0648
     19 O25        44.1156   17.2838    5.3205 O.co2       1 MOL      -0.5663
     20 O26        46.3275   17.6289    5.8685 O.co2       1 MOL      -0.5663
     21 N29        46.7382    8.4099    1.5756 N.pl3       1 MOL      -0.3201
     22 C30        48.1161    8.2253    1.2154 C.3         1 MOL       0.0379
     23 C31        49.1756    8.9623    2.1051 C.3         1 MOL      -0.0135
     24 C32        49.4465    8.2658    3.4641 C.3         1 MOL       0.0314
     25 N33        49.7074    6.8634    3.2652 N.am        1 MOL      -0.2365
     26 C34        48.6937    6.0865    2.5865 C.3         1 MOL       0.0314
     27 C35        48.3893    6.6853    1.1809 C.3         1 MOL      -0.0135
     28 S46        51.0959    6.1471    3.9300 S.o2        1 MOL       0.0512
     29 O47        51.1470    4.5757    3.6812 O.2         1 MOL      -0.1532
     30 O48        50.9989    6.2603    5.5152 O.2         1 MOL      -0.1532
     31 C49        52.6651    6.8642    3.3936 C.3         1 MOL       0.1181
     32 C50        53.0880    6.3171    2.0800 C.ar        1 MOL      -0.0204
     33 C53        54.1709    5.4077    1.9788 C.ar        1 MOL      -0.0587
     34 C54        54.5378    4.8707    0.7351 C.ar        1 MOL      -0.0685
     35 C55        53.8443    5.2398   -0.4307 C.ar        1 MOL      -0.0687
     36 C56        52.7860    6.1654   -0.3502 C.ar        1 MOL      -0.0685
     37 C57        52.4174    6.6989    0.8946 C.ar        1 MOL      -0.0587
     38 H1         47.0781   11.1209    1.5892 H           1 MOL       0.0516
     39 H2         44.4548    7.9470    0.4882 H           1 MOL       0.0521
     40 H3         42.9551    9.5584   -0.4998 H           1 MOL       0.0585
     41 H4         43.4057   11.9238   -0.3441 H           1 MOL       0.0520
     42 H5         46.5215   15.2336    5.0584 H           1 MOL       0.0780
     43 H6         44.8707   15.0750    4.4382 H           1 MOL       0.0780
     44 H7         46.2856    7.6138    1.9228 H           1 MOL       0.1756
     45 H8         48.2426    8.5818    0.1821 H           1 MOL       0.0548
     46 H9         48.8711    9.9903    2.3007 H           1 MOL       0.0303
     47 H10        50.1191    8.9810    1.5441 H           1 MOL       0.0303
     48 H11        48.5755    8.3870    4.1312 H           1 MOL       0.0479
     49 H12        50.3023    8.7759    3.9324 H           1 MOL       0.0479
     50 H13        47.7786    6.1136    3.2066 H           1 MOL       0.0479
     51 H14        48.9929    5.0330    2.4572 H           1 MOL       0.0479
     52 H15        49.2440    6.4856    0.5260 H           1 MOL       0.0303
     53 H16        47.5224    6.1506    0.7566 H           1 MOL       0.0303
     54 H17        53.3987    6.6401    4.1722 H           1 MOL       0.0682
     55 H18        52.5516    7.9507    3.3457 H           1 MOL       0.0682
     56 H19        54.6927    5.1369    2.8131 H           1 MOL       0.0557
     57 H20        55.3169    4.2073    0.6732 H           1 MOL       0.0599
     58 H21        54.1202    4.8568   -1.3388 H           1 MOL       0.0559
     59 H22        52.2935    6.4496   -1.1981 H           1 MOL       0.0599
     60 H23        51.6703    7.3993    0.9354 H           1 MOL       0.0557
@<TRIPOS>BOND
     1     1     2   1
     2     1     5   1
     3     2     3   2
     4     2     6   1
     5     3     4   1
     6     3    16   1
     7     4     5   2
     8     4    15   1
     9     5     9   1
    10     6     7  ar
    11     6     8  ar
    12     9    10  ar
    13     9    14  ar
    14    10    11  ar
    15    11    12  ar
    16    11    21   1
    17    12    13  ar
    18    13    14  ar
    19    16    17   1
    20    17    18   1
    21    18    19  ar
    22    18    20  ar
    23    21    22   1
    24    22    23   1
    25    22    27   1
    26    23    24   1
    27    24    25   1
    28    25    26   1
    29    25    28  am
    30    26    27   1
    31    28    29   2
    32    28    30   2
    33    28    31   1
    34    31    32   1
    35    32    33  ar
    36    32    37  ar
    37    33    34  ar
    38    34    35  ar
    39    35    36  ar
    40    36    37  ar
    41    10    38   1
    42    12    39   1
    43    13    40   1
    44    14    41   1
    45    17    42   1
    46    17    43   1
    47    21    44   1
    48    22    45   1
    49    23    46   1
    50    23    47   1
    51    24    48   1
    52    24    49   1
    53    26    50   1
    54    26    51   1
    55    27    52   1
    56    27    53   1
    57    31    54   1
    58    31    55   1
    59    33    56   1
    60    34    57   1
    61    35    58   1
    62    36    59   1
    63    37    60   1
@<TRIPOS>SUBSTRUCTURE
     1  MOL      2

