@<TRIPOS>MOLECULE
2qbp_ligand_053
    60    63
SMALL
GAST_HUCK
****
This file was generated by PARSER (from files_GN.cpp)

@<TRIPOS>ATOM
      1 S1         43.9011   17.0487    1.9905 S.3         1 MOL      -0.0382
      2 C2         44.9218   16.6073    3.3050 C.2         1 MOL       0.0813
      3 C3         45.7085   15.5358    2.9020 C.2         1 MOL       0.1014
      4 C4         45.4127   15.0646    1.5967 C.2         1 MOL       0.0465
      5 C5         44.4246   15.8051    0.9203 C.2         1 MOL       0.0450
      6 C6         44.9653   17.2352    4.5379 C.2         1 MOL       0.0555
      7 O7         45.8225   18.2650    4.7494 O.co2       1 MOL      -0.5699
      8 O8         43.9884   17.0186    5.4354 O.co2       1 MOL      -0.5699
      9 C9         43.9738   15.6469   -0.4130 C.ar        1 MOL      -0.0166
     10 C10        43.6263   14.3715   -0.9121 C.ar        1 MOL      -0.0362
     11 C11        43.3735   14.1679   -2.2866 C.ar        1 MOL       0.0383
     12 C12        43.3409   15.2888   -3.1464 C.ar        1 MOL      -0.0440
     13 C13        43.5909   16.5761   -2.6481 C.ar        1 MOL      -0.0722
     14 C14        43.9166   16.7577   -1.2937 C.ar        1 MOL      -0.0655
     15 BR19       46.3080   13.5859    0.8950 Br          1 MOL      -0.0668
     16 O20        46.6528   15.0096    3.7332 O.3         1 MOL      -0.3141
     17 C21        47.9674   15.6084    3.6774 C.3         1 MOL       0.1195
     18 C22        47.9996   17.0776    3.5993 C.2         1 MOL       0.0648
     19 O25        47.4218   17.7167    2.5668 O.co2       1 MOL      -0.5663
     20 O26        48.5622   17.8277    4.5875 O.co2       1 MOL      -0.5663
     21 N29        43.2275   12.8856   -2.7017 N.pl3       1 MOL      -0.3201
     22 C30        43.8279   12.3293   -3.8823 C.3         1 MOL       0.0379
     23 C31        44.8606   11.2716   -3.4091 C.3         1 MOL      -0.0135
     24 C32        45.5628   10.5975   -4.6108 C.3         1 MOL       0.0314
     25 N33        44.6232   10.1063   -5.5888 N.am        1 MOL      -0.2365
     26 C34        43.5164   10.9388   -6.0092 C.3         1 MOL       0.0314
     27 C35        42.8014   11.6529   -4.8249 C.3         1 MOL      -0.0135
     28 S46        45.1397    8.8497   -6.5844 S.o2        1 MOL       0.0512
     29 O47        46.6547    9.0914   -7.0361 O.2         1 MOL      -0.1532
     30 O48        44.3383    8.7868   -7.9600 O.2         1 MOL      -0.1532
     31 C49        45.0030    7.2586   -5.7434 C.3         1 MOL       0.1181
     32 C50        43.6224    7.0604   -5.2406 C.ar        1 MOL      -0.0204
     33 C53        43.3247    7.1692   -3.8589 C.ar        1 MOL      -0.0587
     34 C54        42.0062    6.9811   -3.3917 C.ar        1 MOL      -0.0685
     35 C55        40.9756    6.6827   -4.2981 C.ar        1 MOL      -0.0687
     36 C56        41.2583    6.5638   -5.6668 C.ar        1 MOL      -0.0685
     37 C57        42.5717    6.7530   -6.1354 C.ar        1 MOL      -0.0587
     38 H1         43.6437   13.5634   -0.2926 H           1 MOL       0.0516
     39 H2         43.1132   15.1790   -4.1373 H           1 MOL       0.0521
     40 H3         43.5627   17.3873   -3.2707 H           1 MOL       0.0585
     41 H4         44.1545   17.6943   -0.9586 H           1 MOL       0.0520
     42 H5         48.5340   15.2034    2.8355 H           1 MOL       0.0780
     43 H6         48.4778   15.3071    4.5941 H           1 MOL       0.0780
     44 H7         42.9973   12.2356   -2.0216 H           1 MOL       0.1756
     45 H8         44.3762   13.0881   -4.4541 H           1 MOL       0.0548
     46 H9         44.3563   10.4995   -2.8152 H           1 MOL       0.0303
     47 H10        45.6161   11.7458   -2.7709 H           1 MOL       0.0303
     48 H11        46.1787    9.7836   -4.2160 H           1 MOL       0.0479
     49 H12        46.2281   11.3204   -5.0930 H           1 MOL       0.0479
     50 H13        42.7654   10.3450   -6.5371 H           1 MOL       0.0479
     51 H14        43.8996   11.6917   -6.7032 H           1 MOL       0.0479
     52 H15        42.1168   12.4080   -5.2198 H           1 MOL       0.0303
     53 H16        42.2130   10.9201   -4.2645 H           1 MOL       0.0303
     54 H17        45.7245    7.2456   -4.9245 H           1 MOL       0.0682
     55 H18        45.2770    6.4619   -6.4365 H           1 MOL       0.0682
     56 H19        44.0602    7.3857   -3.1834 H           1 MOL       0.0557
     57 H20        41.8094    7.0538   -2.3903 H           1 MOL       0.0599
     58 H21        40.0231    6.5401   -3.9559 H           1 MOL       0.0559
     59 H22        40.5087    6.3319   -6.3267 H           1 MOL       0.0599
     60 H23        42.7590    6.6526   -7.1376 H           1 MOL       0.0557
@<TRIPOS>BOND
     1     1     2   1
     2     1     5   1
     3     2     3   2
     4     2     6   1
     5     3     4   1
     6     3    16   1
     7     4     5   2
     8     4    15   1
     9     5     9   1
    10     6     7  ar
    11     6     8  ar
    12     9    10  ar
    13     9    14  ar
    14    10    11  ar
    15    11    12  ar
    16    11    21   1
    17    12    13  ar
    18    13    14  ar
    19    16    17   1
    20    17    18   1
    21    18    19  ar
    22    18    20  ar
    23    21    22   1
    24    22    23   1
    25    22    27   1
    26    23    24   1
    27    24    25   1
    28    25    26   1
    29    25    28  am
    30    26    27   1
    31    28    29   2
    32    28    30   2
    33    28    31   1
    34    31    32   1
    35    32    33  ar
    36    32    37  ar
    37    33    34  ar
    38    34    35  ar
    39    35    36  ar
    40    36    37  ar
    41    10    38   1
    42    12    39   1
    43    13    40   1
    44    14    41   1
    45    17    42   1
    46    17    43   1
    47    21    44   1
    48    22    45   1
    49    23    46   1
    50    23    47   1
    51    24    48   1
    52    24    49   1
    53    26    50   1
    54    26    51   1
    55    27    52   1
    56    27    53   1
    57    31    54   1
    58    31    55   1
    59    33    56   1
    60    34    57   1
    61    35    58   1
    62    36    59   1
    63    37    60   1
@<TRIPOS>SUBSTRUCTURE
     1  MOL      2

