@<TRIPOS>MOLECULE
2qbp_ligand_064
    60    63
SMALL
GAST_HUCK
****
This file was generated by PARSER (from files_GN.cpp)

@<TRIPOS>ATOM
      1 S1         43.5621   15.1134    1.8873 S.3         1 MOL      -0.0382
      2 C2         44.6744   16.0310    2.8227 C.2         1 MOL       0.0813
      3 C3         45.8678   15.2929    2.9106 C.2         1 MOL       0.1014
      4 C4         45.8160   14.0426    2.2664 C.2         1 MOL       0.0465
      5 C5         44.5907   13.7585    1.6411 C.2         1 MOL       0.0450
      6 C6         44.4112   17.3003    3.3567 C.2         1 MOL       0.0555
      7 O7         44.0039   17.3909    4.6501 O.co2       1 MOL      -0.5699
      8 O8         44.1177   18.3238    2.5160 O.co2       1 MOL      -0.5699
      9 C9         44.2712   12.6453    0.8461 C.ar        1 MOL      -0.0166
     10 C10        44.0831   12.8104   -0.5460 C.ar        1 MOL      -0.0362
     11 C11        43.8717   11.6988   -1.3978 C.ar        1 MOL       0.0383
     12 C12        43.7361   10.4229   -0.8023 C.ar        1 MOL      -0.0440
     13 C13        43.8924   10.2569    0.5856 C.ar        1 MOL      -0.0722
     14 C14        44.1775   11.3540    1.4063 C.ar        1 MOL      -0.0655
     15 BR19       47.2964   12.9164    2.1642 Br          1 MOL      -0.0668
     16 O20        47.0137   15.8382    3.4160 O.3         1 MOL      -0.3141
     17 C21        47.1592   15.7098    4.8344 C.3         1 MOL       0.1195
     18 C22        47.7307   16.9775    5.3141 C.2         1 MOL       0.0648
     19 O25        46.8997   17.9700    5.7126 O.co2       1 MOL      -0.5663
     20 O26        49.0077   17.3075    4.9994 O.co2       1 MOL      -0.5663
     21 N29        43.8515   12.0097   -2.7278 N.pl3       1 MOL      -0.3201
     22 C30        44.1260   11.2812   -3.9361 C.3         1 MOL       0.0379
     23 C31        45.3989   11.9477   -4.5545 C.3         1 MOL      -0.0135
     24 C32        45.8636   11.2712   -5.8738 C.3         1 MOL       0.0314
     25 N33        45.9744    9.8512   -5.6814 N.am        1 MOL      -0.2365
     26 C34        44.7904    9.1569   -5.2436 C.3         1 MOL       0.0314
     27 C35        44.3012    9.7373   -3.8891 C.3         1 MOL      -0.0135
     28 S46        47.5087    9.1444   -5.5528 S.o2        1 MOL       0.0512
     29 O47        48.3523    9.6143   -6.8154 O.2         1 MOL      -0.1532
     30 O48        47.4371    7.5741   -5.8047 O.2         1 MOL      -0.1532
     31 C49        48.4832    9.5392   -4.0792 C.3         1 MOL       0.1181
     32 C50        47.9219    9.0006   -2.8157 C.ar        1 MOL      -0.0204
     33 C53        47.8908    7.6050   -2.5708 C.ar        1 MOL      -0.0587
     34 C54        47.3774    7.0905   -1.3698 C.ar        1 MOL      -0.0685
     35 C55        46.8997    7.9620   -0.3753 C.ar        1 MOL      -0.0687
     36 C56        46.9541    9.3493   -0.5818 C.ar        1 MOL      -0.0685
     37 C57        47.4649    9.8664   -1.7877 C.ar        1 MOL      -0.0587
     38 H1         44.1881   13.7492   -0.9509 H           1 MOL       0.0516
     39 H2         43.4978    9.6079   -1.3466 H           1 MOL       0.0521
     40 H3         43.8055    9.3317    1.0008 H           1 MOL       0.0585
     41 H4         44.3103   11.2226    2.4112 H           1 MOL       0.0520
     42 H5         47.8361   14.8885    5.0611 H           1 MOL       0.0780
     43 H6         46.2176   15.5370    5.3673 H           1 MOL       0.0780
     44 H7         43.7747   12.9600   -2.8968 H           1 MOL       0.1756
     45 H8         43.2932   11.4871   -4.6131 H           1 MOL       0.0548
     46 H9         46.2201   11.9001   -3.8325 H           1 MOL       0.0303
     47 H10        45.2034   13.0050   -4.7585 H           1 MOL       0.0303
     48 H11        46.8037   11.7279   -6.1958 H           1 MOL       0.0479
     49 H12        45.1265   11.4707   -6.6582 H           1 MOL       0.0479
     50 H13        44.9540    8.0815   -5.1422 H           1 MOL       0.0479
     51 H14        44.0069    9.2919   -5.9931 H           1 MOL       0.0479
     52 H15        43.3423    9.2685   -3.6521 H           1 MOL       0.0303
     53 H16        45.0254    9.4629   -3.1240 H           1 MOL       0.0303
     54 H17        48.5705   10.6264   -4.0401 H           1 MOL       0.0682
     55 H18        49.4883    9.1385   -4.2152 H           1 MOL       0.0682
     56 H19        48.2471    6.9511   -3.2708 H           1 MOL       0.0557
     57 H20        47.3645    6.0805   -1.2135 H           1 MOL       0.0599
     58 H21        46.5242    7.5851    0.4972 H           1 MOL       0.0559
     59 H22        46.6278    9.9880    0.1493 H           1 MOL       0.0599
     60 H23        47.4997   10.8827   -1.9091 H           1 MOL       0.0557
@<TRIPOS>BOND
     1     1     2   1
     2     1     5   1
     3     2     3   2
     4     2     6   1
     5     3     4   1
     6     3    16   1
     7     4     5   2
     8     4    15   1
     9     5     9   1
    10     6     7  ar
    11     6     8  ar
    12     9    10  ar
    13     9    14  ar
    14    10    11  ar
    15    11    12  ar
    16    11    21   1
    17    12    13  ar
    18    13    14  ar
    19    16    17   1
    20    17    18   1
    21    18    19  ar
    22    18    20  ar
    23    21    22   1
    24    22    23   1
    25    22    27   1
    26    23    24   1
    27    24    25   1
    28    25    26   1
    29    25    28  am
    30    26    27   1
    31    28    29   2
    32    28    30   2
    33    28    31   1
    34    31    32   1
    35    32    33  ar
    36    32    37  ar
    37    33    34  ar
    38    34    35  ar
    39    35    36  ar
    40    36    37  ar
    41    10    38   1
    42    12    39   1
    43    13    40   1
    44    14    41   1
    45    17    42   1
    46    17    43   1
    47    21    44   1
    48    22    45   1
    49    23    46   1
    50    23    47   1
    51    24    48   1
    52    24    49   1
    53    26    50   1
    54    26    51   1
    55    27    52   1
    56    27    53   1
    57    31    54   1
    58    31    55   1
    59    33    56   1
    60    34    57   1
    61    35    58   1
    62    36    59   1
    63    37    60   1
@<TRIPOS>SUBSTRUCTURE
     1  MOL      2

