@<TRIPOS>MOLECULE
2qbp_ligand_080
    60    63
SMALL
GAST_HUCK
****
This file was generated by PARSER (from files_GN.cpp)

@<TRIPOS>ATOM
      1 S1         44.0547   15.6063    2.7720 S.3         1 MOL      -0.0382
      2 C2         45.3630   15.7337    3.8819 C.2         1 MOL       0.0813
      3 C3         46.4109   14.9370    3.4050 C.2         1 MOL       0.1014
      4 C4         46.0851   14.2107    2.2386 C.2         1 MOL       0.0465
      5 C5         44.8055   14.4753    1.7150 C.2         1 MOL       0.0450
      6 C6         45.3433   16.5154    5.0503 C.2         1 MOL       0.0555
      7 O7         46.4629   17.0682    5.5829 O.co2       1 MOL      -0.5699
      8 O8         44.1759   16.8616    5.6091 O.co2       1 MOL      -0.5699
      9 C9         44.2557   14.0190    0.5111 C.ar        1 MOL      -0.0166
     10 C10        44.1649   12.6432    0.2213 C.ar        1 MOL      -0.0362
     11 C11        43.8802   12.1865   -1.0832 C.ar        1 MOL       0.0383
     12 C12        43.5778   13.1451   -2.0902 C.ar        1 MOL      -0.0440
     13 C13        43.5506   14.5061   -1.7799 C.ar        1 MOL      -0.0722
     14 C14        43.9011   14.9539   -0.4982 C.ar        1 MOL      -0.0655
     15 BR19       47.2829   13.0145    1.4558 Br          1 MOL      -0.0668
     16 O20        47.6213   14.8748    4.0539 O.3         1 MOL      -0.3141
     17 C21        48.5910   15.9015    3.7320 C.3         1 MOL       0.1195
     18 C22        48.0900   17.2822    3.6114 C.2         1 MOL       0.0648
     19 O25        47.2555   17.6337    2.6089 O.co2       1 MOL      -0.5663
     20 O26        48.3505   18.1813    4.5936 O.co2       1 MOL      -0.5663
     21 N29        44.0138   10.8622   -1.3013 N.pl3       1 MOL      -0.3201
     22 C30        44.7674   10.2914   -2.3798 C.3         1 MOL       0.0379
     23 C31        46.2696   10.2890   -1.9596 C.3         1 MOL      -0.0135
     24 C32        47.1531    9.5613   -2.9979 C.3         1 MOL       0.0314
     25 N33        46.6328    8.2636   -3.3415 N.am        1 MOL      -0.2365
     26 C34        45.2335    8.1511   -3.6950 C.3         1 MOL       0.0314
     27 C35        44.3054    8.8421   -2.6622 C.3         1 MOL      -0.0135
     28 S46        47.6958    7.0340   -3.8008 S.o2        1 MOL       0.0512
     29 O47        47.8775    6.0391   -2.5687 O.2         1 MOL      -0.1532
     30 O48        49.1578    7.6179   -4.0835 O.2         1 MOL      -0.1532
     31 C49        47.2581    6.0595   -5.2585 C.3         1 MOL       0.1181
     32 C50        46.8188    6.8951   -6.3951 C.ar        1 MOL      -0.0204
     33 C53        45.4509    7.0033   -6.7484 C.ar        1 MOL      -0.0587
     34 C54        45.0291    7.8279   -7.7922 C.ar        1 MOL      -0.0685
     35 C55        45.9825    8.5425   -8.5613 C.ar        1 MOL      -0.0687
     36 C56        47.3474    8.4219   -8.2398 C.ar        1 MOL      -0.0685
     37 C57        47.7644    7.6246   -7.1782 C.ar        1 MOL      -0.0587
     38 H1         44.4088   11.9622    0.9478 H           1 MOL       0.0516
     39 H2         43.3462   12.8449   -3.0382 H           1 MOL       0.0521
     40 H3         43.3206   15.1937   -2.5105 H           1 MOL       0.0585
     41 H4         43.9445   15.9598   -0.3096 H           1 MOL       0.0520
     42 H5         49.1270   15.6464    2.8171 H           1 MOL       0.0780
     43 H6         49.3175   15.8916    4.5420 H           1 MOL       0.0780
     44 H7         43.9909   10.3028   -0.5046 H           1 MOL       0.1756
     45 H8         44.6596   10.8671   -3.3053 H           1 MOL       0.0548
     46 H9         46.3747    9.7793   -0.9959 H           1 MOL       0.0303
     47 H10        46.6227   11.3113   -1.8399 H           1 MOL       0.0303
     48 H11        48.1598    9.4859   -2.5646 H           1 MOL       0.0479
     49 H12        47.2292   10.1664   -3.9068 H           1 MOL       0.0479
     50 H13        44.9237    7.1118   -3.7757 H           1 MOL       0.0479
     51 H14        45.0854    8.6311   -4.6628 H           1 MOL       0.0479
     52 H15        43.2772    8.8542   -3.0538 H           1 MOL       0.0303
     53 H16        44.3038    8.2553   -1.7356 H           1 MOL       0.0303
     54 H17        46.4696    5.3648   -4.9562 H           1 MOL       0.0682
     55 H18        48.1164    5.4526   -5.5562 H           1 MOL       0.0682
     56 H19        44.7429    6.4964   -6.2043 H           1 MOL       0.0557
     57 H20        44.0373    7.9183   -8.0158 H           1 MOL       0.0599
     58 H21        45.6782    9.1337   -9.3256 H           1 MOL       0.0559
     59 H22        48.0418    8.9366   -8.8036 H           1 MOL       0.0599
     60 H23        48.7646    7.5557   -6.9566 H           1 MOL       0.0557
@<TRIPOS>BOND
     1     1     2   1
     2     1     5   1
     3     2     3   2
     4     2     6   1
     5     3     4   1
     6     3    16   1
     7     4     5   2
     8     4    15   1
     9     5     9   1
    10     6     7  ar
    11     6     8  ar
    12     9    10  ar
    13     9    14  ar
    14    10    11  ar
    15    11    12  ar
    16    11    21   1
    17    12    13  ar
    18    13    14  ar
    19    16    17   1
    20    17    18   1
    21    18    19  ar
    22    18    20  ar
    23    21    22   1
    24    22    23   1
    25    22    27   1
    26    23    24   1
    27    24    25   1
    28    25    26   1
    29    25    28  am
    30    26    27   1
    31    28    29   2
    32    28    30   2
    33    28    31   1
    34    31    32   1
    35    32    33  ar
    36    32    37  ar
    37    33    34  ar
    38    34    35  ar
    39    35    36  ar
    40    36    37  ar
    41    10    38   1
    42    12    39   1
    43    13    40   1
    44    14    41   1
    45    17    42   1
    46    17    43   1
    47    21    44   1
    48    22    45   1
    49    23    46   1
    50    23    47   1
    51    24    48   1
    52    24    49   1
    53    26    50   1
    54    26    51   1
    55    27    52   1
    56    27    53   1
    57    31    54   1
    58    31    55   1
    59    33    56   1
    60    34    57   1
    61    35    58   1
    62    36    59   1
    63    37    60   1
@<TRIPOS>SUBSTRUCTURE
     1  MOL      2

