@<TRIPOS>MOLECULE
2qbr_ligand_004
    42    44
SMALL
GAST_HUCK
****
This file was generated by PARSER (from files_GN.cpp)

@<TRIPOS>ATOM
      1 S1         44.1135   15.0229    2.0977 S.3         1 MOL      -0.0382
      2 C2         45.1685   16.0270    3.0177 C.2         1 MOL       0.0813
      3 C3         46.4118   15.3848    3.0990 C.2         1 MOL       0.1014
      4 C4         46.4570   14.1511    2.4130 C.2         1 MOL       0.0465
      5 C5         45.2533   13.7741    1.8073 C.2         1 MOL       0.0450
      6 C6         44.8250   17.2579    3.5748 C.2         1 MOL       0.0555
      7 O7         44.2060   17.2695    4.7784 O.co2       1 MOL      -0.5699
      8 O8         44.6342   18.3067    2.7425 O.co2       1 MOL      -0.5699
      9 C9         45.0148   12.6084    1.0682 C.ar        1 MOL      -0.0166
     10 C10        45.4564   12.5084   -0.2659 C.ar        1 MOL      -0.0360
     11 C11        45.3980   11.2835   -0.9717 C.ar        1 MOL       0.0399
     12 C12        44.8713   10.1527   -0.2984 C.ar        1 MOL      -0.0438
     13 C13        44.3546   10.2635    1.0054 C.ar        1 MOL      -0.0722
     14 C14        44.4245   11.4878    1.6917 C.ar        1 MOL      -0.0655
     15 BR19       48.0054   13.1141    2.3151 Br          1 MOL      -0.0668
     16 O20        47.4951   15.9494    3.7259 O.3         1 MOL      -0.3141
     17 C21        47.6424   15.6348    5.1260 C.3         1 MOL       0.1195
     18 C22        46.5033   16.0963    5.9443 C.2         1 MOL       0.0648
     19 O25        46.5095   17.3588    6.4325 O.co2       1 MOL      -0.5663
     20 O26        45.2884   15.5492    5.7286 O.co2       1 MOL      -0.5663
     21 N29        45.8016   11.0873   -2.2513 N.pl3       1 MOL      -0.3119
     22 C30        45.9095   12.0441   -3.3137 C.3         1 MOL       0.0574
     23 C31        46.8350   13.1984   -3.1530 C.ar        1 MOL      -0.0218
     24 C34        48.2140   13.0080   -2.9116 C.ar        1 MOL      -0.0585
     25 C35        49.0833   14.1109   -2.8050 C.ar        1 MOL      -0.0685
     26 C36        48.5814   15.4225   -2.9414 C.ar        1 MOL      -0.0687
     27 C37        47.2111   15.6256   -3.1774 C.ar        1 MOL      -0.0685
     28 C38        46.3441   14.5251   -3.2856 C.ar        1 MOL      -0.0585
     29 H1         45.8773   13.3297   -0.7035 H           1 MOL       0.0516
     30 H2         44.8158    9.2477   -0.7718 H           1 MOL       0.0521
     31 H3         43.9393    9.4476    1.4571 H           1 MOL       0.0585
     32 H4         44.0780   11.5430    2.6521 H           1 MOL       0.0520
     33 H5         48.5454   16.1494    5.4632 H           1 MOL       0.0780
     34 H6         47.8092   14.5645    5.2942 H           1 MOL       0.0780
     35 H7         45.8200   10.1644   -2.5468 H           1 MOL       0.1779
     36 H8         44.8932   12.3899   -3.5189 H           1 MOL       0.0675
     37 H9         46.2327   11.4972   -4.2001 H           1 MOL       0.0675
     38 H10        48.5964   12.0642   -2.8198 H           1 MOL       0.0557
     39 H11        50.0797   13.9671   -2.6364 H           1 MOL       0.0599
     40 H12        49.2110   16.2237   -2.8649 H           1 MOL       0.0559
     41 H13        46.8447   16.5742   -3.2757 H           1 MOL       0.0599
     42 H14        45.3543   14.6962   -3.4610 H           1 MOL       0.0557
@<TRIPOS>BOND
     1     1     2   1
     2     1     5   1
     3     2     3   2
     4     2     6   1
     5     3     4   1
     6     3    16   1
     7     4     5   2
     8     4    15   1
     9     5     9   1
    10     6     7  ar
    11     6     8  ar
    12     9    10  ar
    13     9    14  ar
    14    10    11  ar
    15    11    12  ar
    16    11    21   1
    17    12    13  ar
    18    13    14  ar
    19    16    17   1
    20    17    18   1
    21    18    19  ar
    22    18    20  ar
    23    21    22   1
    24    22    23   1
    25    23    24  ar
    26    23    28  ar
    27    24    25  ar
    28    25    26  ar
    29    26    27  ar
    30    27    28  ar
    31    10    29   1
    32    12    30   1
    33    13    31   1
    34    14    32   1
    35    17    33   1
    36    17    34   1
    37    21    35   1
    38    22    36   1
    39    22    37   1
    40    24    38   1
    41    25    39   1
    42    26    40   1
    43    27    41   1
    44    28    42   1
@<TRIPOS>SUBSTRUCTURE
     1  MOL      2

