@<TRIPOS>MOLECULE
2qbr_ligand_030
    42    44
SMALL
GAST_HUCK
****
This file was generated by PARSER (from files_GN.cpp)

@<TRIPOS>ATOM
      1 S1         44.9493   13.0712    1.5220 S.3         1 MOL      -0.0382
      2 C2         45.9764   13.4459    2.8403 C.2         1 MOL       0.0813
      3 C3         46.1088   14.8417    2.8524 C.2         1 MOL       0.1014
      4 C4         45.4367   15.5128    1.8057 C.2         1 MOL       0.0465
      5 C5         44.7275   14.6728    0.9199 C.2         1 MOL       0.0450
      6 C6         46.5596   12.4920    3.6993 C.2         1 MOL       0.0555
      7 O7         45.9464   11.3097    3.9359 O.co2       1 MOL      -0.5699
      8 O8         47.7857   12.6943    4.2278 O.co2       1 MOL      -0.5699
      9 C9         43.9450   14.9443   -0.2468 C.ar        1 MOL      -0.0166
     10 C10        43.8819   13.9820   -1.2890 C.ar        1 MOL      -0.0360
     11 C11        42.9653   14.0845   -2.3659 C.ar        1 MOL       0.0399
     12 C12        42.1802   15.2458   -2.4536 C.ar        1 MOL      -0.0438
     13 C13        42.2861   16.2622   -1.4905 C.ar        1 MOL      -0.0722
     14 C14        43.1428   16.0957   -0.3828 C.ar        1 MOL      -0.0655
     15 BR19       45.5906   17.3615    1.6330 Br          1 MOL      -0.0668
     16 O20        46.8399   15.5086    3.8023 O.3         1 MOL      -0.3141
     17 C21        46.2784   15.4994    5.1369 C.3         1 MOL       0.1195
     18 C22        45.9170   16.8687    5.5250 C.2         1 MOL       0.0648
     19 O25        46.7656   17.5582    6.3173 O.co2       1 MOL      -0.5663
     20 O26        44.6132   17.2270    5.5699 O.co2       1 MOL      -0.5663
     21 N29        42.7918   13.1286   -3.3235 N.pl3       1 MOL      -0.3119
     22 C30        43.6003   11.9816   -3.6186 C.3         1 MOL       0.0574
     23 C31        43.7039   10.9486   -2.5503 C.ar        1 MOL      -0.0218
     24 C34        44.9339   10.7027   -1.8918 C.ar        1 MOL      -0.0585
     25 C35        45.0247    9.7599   -0.8555 C.ar        1 MOL      -0.0685
     26 C36        43.8908    9.0099   -0.4843 C.ar        1 MOL      -0.0687
     27 C37        42.6746    9.2092   -1.1547 C.ar        1 MOL      -0.0685
     28 C38        42.5759   10.1776   -2.1757 C.ar        1 MOL      -0.0585
     29 H1         44.4950   13.1766   -1.2431 H           1 MOL       0.0516
     30 H2         41.5288   15.3695   -3.2286 H           1 MOL       0.0521
     31 H3         41.7280   17.1133   -1.5803 H           1 MOL       0.0585
     32 H4         43.1309   16.8153    0.3438 H           1 MOL       0.0520
     33 H5         47.0482   15.1329    5.8186 H           1 MOL       0.0780
     34 H6         45.4137   14.8393    5.2663 H           1 MOL       0.0780
     35 H7         42.0594   13.2806   -3.9408 H           1 MOL       0.1779
     36 H8         44.5900   12.3394   -3.9169 H           1 MOL       0.0675
     37 H9         43.1708   11.4964   -4.4992 H           1 MOL       0.0675
     38 H10        45.7722   11.2288   -2.1508 H           1 MOL       0.0557
     39 H11        45.9102    9.6214   -0.3629 H           1 MOL       0.0599
     40 H12        43.9596    8.3207    0.2663 H           1 MOL       0.0559
     41 H13        41.8537    8.6537   -0.8968 H           1 MOL       0.0599
     42 H14        41.6766   10.3168   -2.6453 H           1 MOL       0.0557
@<TRIPOS>BOND
     1     1     2   1
     2     1     5   1
     3     2     3   2
     4     2     6   1
     5     3     4   1
     6     3    16   1
     7     4     5   2
     8     4    15   1
     9     5     9   1
    10     6     7  ar
    11     6     8  ar
    12     9    10  ar
    13     9    14  ar
    14    10    11  ar
    15    11    12  ar
    16    11    21   1
    17    12    13  ar
    18    13    14  ar
    19    16    17   1
    20    17    18   1
    21    18    19  ar
    22    18    20  ar
    23    21    22   1
    24    22    23   1
    25    23    24  ar
    26    23    28  ar
    27    24    25  ar
    28    25    26  ar
    29    26    27  ar
    30    27    28  ar
    31    10    29   1
    32    12    30   1
    33    13    31   1
    34    14    32   1
    35    17    33   1
    36    17    34   1
    37    21    35   1
    38    22    36   1
    39    22    37   1
    40    24    38   1
    41    25    39   1
    42    26    40   1
    43    27    41   1
    44    28    42   1
@<TRIPOS>SUBSTRUCTURE
     1  MOL      2

