@<TRIPOS>MOLECULE
2qbr_ligand_010
    42    44
SMALL
GAST_HUCK
****
This file was generated by PARSER (from files_GN.cpp)

@<TRIPOS>ATOM
      1 S1         44.5344   14.5671    0.7317 S.3         1 MOL      -0.0382
      2 C2         45.2278   15.6687    1.8735 C.2         1 MOL       0.0813
      3 C3         46.1567   14.9437    2.6420 C.2         1 MOL       0.1014
      4 C4         46.2468   13.5816    2.2921 C.2         1 MOL       0.0465
      5 C5         45.4140   13.1746    1.2384 C.2         1 MOL       0.0450
      6 C6         44.9402   17.0388    1.9233 C.2         1 MOL       0.0555
      7 O7         45.8038   17.9196    1.3453 O.co2       1 MOL      -0.5699
      8 O8         43.6755   17.4670    2.1966 O.co2       1 MOL      -0.5699
      9 C9         45.3416   11.8964    0.6715 C.ar        1 MOL      -0.0166
     10 C10        46.2524   11.5218   -0.3402 C.ar        1 MOL      -0.0360
     11 C11        46.3646   10.1775   -0.7709 C.ar        1 MOL       0.0399
     12 C12        45.4794    9.2232   -0.2219 C.ar        1 MOL      -0.0438
     13 C13        44.5360    9.5883    0.7581 C.ar        1 MOL      -0.0722
     14 C14        44.4942   10.9128    1.2262 C.ar        1 MOL      -0.0655
     15 BR19       47.4074   12.4001    3.1611 Br          1 MOL      -0.0668
     16 O20        46.8790   15.4822    3.6710 O.3         1 MOL      -0.3141
     17 C21        46.2260   15.4680    4.9618 C.3         1 MOL       0.1195
     18 C22        45.9007   16.8447    5.3754 C.2         1 MOL       0.0648
     19 O25        44.6072   17.2185    5.4855 O.co2       1 MOL      -0.5663
     20 O26        46.7893   17.5242    6.1415 O.co2       1 MOL      -0.5663
     21 N29        47.3049    9.7211   -1.6368 N.pl3       1 MOL      -0.3119
     22 C30        48.2424   10.4612   -2.4247 C.3         1 MOL       0.0574
     23 C31        49.3896   11.0341   -1.6497 C.ar        1 MOL      -0.0218
     24 C34        50.1211   10.2270   -0.7446 C.ar        1 MOL      -0.0585
     25 C35        51.2347   10.7480   -0.0673 C.ar        1 MOL      -0.0685
     26 C36        51.6343   12.0742   -0.2816 C.ar        1 MOL      -0.0687
     27 C37        50.9122   12.8876   -1.1680 C.ar        1 MOL      -0.0685
     28 C38        49.7905   12.3774   -1.8396 C.ar        1 MOL      -0.0585
     29 H1         46.8897   12.2390   -0.7240 H           1 MOL       0.0516
     30 H2         45.5443    8.2410   -0.5078 H           1 MOL       0.0521
     31 H3         43.9461    8.8699    1.1671 H           1 MOL       0.0585
     32 H4         43.8725   11.1364    1.9984 H           1 MOL       0.0520
     33 H5         46.9178   15.0393    5.6978 H           1 MOL       0.0780
     34 H6         45.3193   14.8572    4.9817 H           1 MOL       0.0780
     35 H7         47.3646    8.7481   -1.7231 H           1 MOL       0.1779
     36 H8         47.6861   11.2337   -2.9590 H           1 MOL       0.0675
     37 H9         48.6544    9.7832   -3.1699 H           1 MOL       0.0675
     38 H10        49.8454    9.2500   -0.5883 H           1 MOL       0.0557
     39 H11        51.7565   10.1523    0.5800 H           1 MOL       0.0599
     40 H12        52.4585   12.4402    0.1927 H           1 MOL       0.0559
     41 H13        51.2021   13.8527   -1.3282 H           1 MOL       0.0599
     42 H14        49.2758   12.9833   -2.4875 H           1 MOL       0.0557
@<TRIPOS>BOND
     1     1     2   1
     2     1     5   1
     3     2     3   2
     4     2     6   1
     5     3     4   1
     6     3    16   1
     7     4     5   2
     8     4    15   1
     9     5     9   1
    10     6     7  ar
    11     6     8  ar
    12     9    10  ar
    13     9    14  ar
    14    10    11  ar
    15    11    12  ar
    16    11    21   1
    17    12    13  ar
    18    13    14  ar
    19    16    17   1
    20    17    18   1
    21    18    19  ar
    22    18    20  ar
    23    21    22   1
    24    22    23   1
    25    23    24  ar
    26    23    28  ar
    27    24    25  ar
    28    25    26  ar
    29    26    27  ar
    30    27    28  ar
    31    10    29   1
    32    12    30   1
    33    13    31   1
    34    14    32   1
    35    17    33   1
    36    17    34   1
    37    21    35   1
    38    22    36   1
    39    22    37   1
    40    24    38   1
    41    25    39   1
    42    26    40   1
    43    27    41   1
    44    28    42   1
@<TRIPOS>SUBSTRUCTURE
     1  MOL      2

