@<TRIPOS>MOLECULE
2qbr_ligand_008
    42    44
SMALL
GAST_HUCK
****
This file was generated by PARSER (from files_GN.cpp)

@<TRIPOS>ATOM
      1 S1         44.5941   13.6554    0.7108 S.3         1 MOL      -0.0382
      2 C2         44.8565   15.1305    1.5604 C.2         1 MOL       0.0813
      3 C3         45.8630   14.8801    2.5077 C.2         1 MOL       0.1014
      4 C4         46.3623   13.5645    2.4888 C.2         1 MOL       0.0465
      5 C5         45.7679   12.7108    1.5421 C.2         1 MOL       0.0450
      6 C6         44.1558   16.3313    1.2990 C.2         1 MOL       0.0555
      7 O7         44.1081   17.3498    2.1913 O.co2       1 MOL      -0.5699
      8 O8         43.5322   16.5343    0.1098 O.co2       1 MOL      -0.5699
      9 C9         46.0422   11.3488    1.2695 C.ar        1 MOL      -0.0166
     10 C10        47.3647   10.9121    1.0153 C.ar        1 MOL      -0.0360
     11 C11        47.6639    9.5470    0.7831 C.ar        1 MOL       0.0399
     12 C12        46.6019    8.6191    0.7963 C.ar        1 MOL      -0.0438
     13 C13        45.2773    9.0337    1.0275 C.ar        1 MOL      -0.0722
     14 C14        44.9982   10.3932    1.2503 C.ar        1 MOL      -0.0655
     15 BR19       47.6447   12.9719    3.7050 Br          1 MOL      -0.0668
     16 O20        46.3343   15.8613    3.3300 O.3         1 MOL      -0.3141
     17 C21        46.1729   15.6301    4.7438 C.3         1 MOL       0.1195
     18 C22        45.8400   16.9144    5.3909 C.2         1 MOL       0.0648
     19 O25        46.7324   17.5183    6.2114 O.co2       1 MOL      -0.5663
     20 O26        44.5367   17.2589    5.5154 O.co2       1 MOL      -0.5663
     21 N29        48.9132    9.0685    0.5453 N.pl3       1 MOL      -0.3119
     22 C30        50.1460    9.7688    0.7032 C.3         1 MOL       0.0574
     23 C31        51.2682    8.8213    0.9240 C.ar        1 MOL      -0.0218
     24 C34        51.2711    7.9792    2.0625 C.ar        1 MOL      -0.0585
     25 C35        52.3201    7.0658    2.2824 C.ar        1 MOL      -0.0685
     26 C36        53.3770    6.9754    1.3605 C.ar        1 MOL      -0.0687
     27 C37        53.3887    7.8015    0.2217 C.ar        1 MOL      -0.0685
     28 C38        52.3450    8.7217    0.0071 C.ar        1 MOL      -0.0585
     29 H1         48.1161   11.6040    0.9878 H           1 MOL       0.0516
     30 H2         46.7774    7.6293    0.6301 H           1 MOL       0.0521
     31 H3         44.5160    8.3534    1.0305 H           1 MOL       0.0585
     32 H4         44.0256   10.6804    1.4206 H           1 MOL       0.0520
     33 H5         47.1163   15.2625    5.1628 H           1 MOL       0.0780
     34 H6         45.3930   14.8970    4.9765 H           1 MOL       0.0780
     35 H7         48.9743    8.1640    0.1969 H           1 MOL       0.1779
     36 H8         50.0843   10.4438    1.5594 H           1 MOL       0.0675
     37 H9         50.3258   10.3798   -0.1857 H           1 MOL       0.0675
     38 H10        50.5075    8.0306    2.7433 H           1 MOL       0.0557
     39 H11        52.3118    6.4688    3.1108 H           1 MOL       0.0599
     40 H12        54.1351    6.3098    1.5148 H           1 MOL       0.0559
     41 H13        54.1541    7.7326   -0.4519 H           1 MOL       0.0599
     42 H14        52.3670    9.3123   -0.8289 H           1 MOL       0.0557
@<TRIPOS>BOND
     1     1     2   1
     2     1     5   1
     3     2     3   2
     4     2     6   1
     5     3     4   1
     6     3    16   1
     7     4     5   2
     8     4    15   1
     9     5     9   1
    10     6     7  ar
    11     6     8  ar
    12     9    10  ar
    13     9    14  ar
    14    10    11  ar
    15    11    12  ar
    16    11    21   1
    17    12    13  ar
    18    13    14  ar
    19    16    17   1
    20    17    18   1
    21    18    19  ar
    22    18    20  ar
    23    21    22   1
    24    22    23   1
    25    23    24  ar
    26    23    28  ar
    27    24    25  ar
    28    25    26  ar
    29    26    27  ar
    30    27    28  ar
    31    10    29   1
    32    12    30   1
    33    13    31   1
    34    14    32   1
    35    17    33   1
    36    17    34   1
    37    21    35   1
    38    22    36   1
    39    22    37   1
    40    24    38   1
    41    25    39   1
    42    26    40   1
    43    27    41   1
    44    28    42   1
@<TRIPOS>SUBSTRUCTURE
     1  MOL      2

