@<TRIPOS>MOLECULE
2qbr_ligand_035
    42    44
SMALL
GAST_HUCK
****
This file was generated by PARSER (from files_GN.cpp)

@<TRIPOS>ATOM
      1 S1         46.0350   12.9478    2.6675 S.3         1 MOL      -0.0382
      2 C2         46.2747   14.1856    3.8377 C.2         1 MOL       0.0813
      3 C3         45.9533   15.4058    3.2236 C.2         1 MOL       0.1014
      4 C4         45.4885   15.2811    1.8928 C.2         1 MOL       0.0465
      5 C5         45.4488   13.9562    1.3993 C.2         1 MOL       0.0450
      6 C6         46.7251   13.9865    5.1400 C.2         1 MOL       0.0555
      7 O7         47.9890   13.5624    5.3731 O.co2       1 MOL      -0.5699
      8 O8         45.8812   14.1594    6.1955 O.co2       1 MOL      -0.5699
      9 C9         45.0819   13.4951    0.1046 C.ar        1 MOL      -0.0166
     10 C10        45.7528   12.4052   -0.5131 C.ar        1 MOL      -0.0360
     11 C11        45.4077   11.9431   -1.8040 C.ar        1 MOL       0.0399
     12 C12        44.4230   12.6552   -2.5304 C.ar        1 MOL      -0.0438
     13 C13        43.6948   13.6979   -1.9156 C.ar        1 MOL      -0.0722
     14 C14        43.9958   14.0750   -0.5987 C.ar        1 MOL      -0.0655
     15 BR19       45.0652   16.8257    0.9305 Br          1 MOL      -0.0668
     16 O20        46.1651   16.6117    3.8400 O.3         1 MOL      -0.3141
     17 C21        47.4149   17.2519    3.5079 C.3         1 MOL       0.1195
     18 C22        48.4203   17.0972    4.5727 C.2         1 MOL       0.0648
     19 O25        49.0258   18.1771    5.1182 O.co2       1 MOL      -0.5663
     20 O26        48.7201   15.8597    5.0602 O.co2       1 MOL      -0.5663
     21 N29        45.8913   10.8156   -2.3873 N.pl3       1 MOL      -0.3119
     22 C30        45.9863    9.5258   -1.7733 C.3         1 MOL       0.0574
     23 C31        44.6700    8.8642   -1.9633 C.ar        1 MOL      -0.0218
     24 C34        44.4879    7.8826   -2.9629 C.ar        1 MOL      -0.0585
     25 C35        43.2037    7.3743   -3.2473 C.ar        1 MOL      -0.0685
     26 C36        42.0889    7.8439   -2.5437 C.ar        1 MOL      -0.0687
     27 C37        42.2566    8.7992   -1.5252 C.ar        1 MOL      -0.0685
     28 C38        43.5366    9.3059   -1.2394 C.ar        1 MOL      -0.0585
     29 H1         46.5290   11.9503   -0.0325 H           1 MOL       0.0516
     30 H2         44.1650   12.3680   -3.4832 H           1 MOL       0.0521
     31 H3         42.9317   14.1453   -2.4252 H           1 MOL       0.0585
     32 H4         43.3898   14.7631   -0.1630 H           1 MOL       0.0520
     33 H5         47.2090   18.3133    3.3914 H           1 MOL       0.0780
     34 H6         47.8568   16.9181    2.5687 H           1 MOL       0.0780
     35 H7         45.8538   10.8007   -3.3661 H           1 MOL       0.1779
     36 H8         46.2284    9.5643   -0.7102 H           1 MOL       0.0675
     37 H9         46.7841    8.9797   -2.2756 H           1 MOL       0.0675
     38 H10        45.2863    7.5512   -3.5159 H           1 MOL       0.0557
     39 H11        43.0871    6.6859   -3.9807 H           1 MOL       0.0599
     40 H12        41.1611    7.4820   -2.7590 H           1 MOL       0.0559
     41 H13        41.4493    9.1389   -1.0045 H           1 MOL       0.0599
     42 H14        43.6325   10.0225   -0.5074 H           1 MOL       0.0557
@<TRIPOS>BOND
     1     1     2   1
     2     1     5   1
     3     2     3   2
     4     2     6   1
     5     3     4   1
     6     3    16   1
     7     4     5   2
     8     4    15   1
     9     5     9   1
    10     6     7  ar
    11     6     8  ar
    12     9    10  ar
    13     9    14  ar
    14    10    11  ar
    15    11    12  ar
    16    11    21   1
    17    12    13  ar
    18    13    14  ar
    19    16    17   1
    20    17    18   1
    21    18    19  ar
    22    18    20  ar
    23    21    22   1
    24    22    23   1
    25    23    24  ar
    26    23    28  ar
    27    24    25  ar
    28    25    26  ar
    29    26    27  ar
    30    27    28  ar
    31    10    29   1
    32    12    30   1
    33    13    31   1
    34    14    32   1
    35    17    33   1
    36    17    34   1
    37    21    35   1
    38    22    36   1
    39    22    37   1
    40    24    38   1
    41    25    39   1
    42    26    40   1
    43    27    41   1
    44    28    42   1
@<TRIPOS>SUBSTRUCTURE
     1  MOL      2

