@<TRIPOS>MOLECULE
2qbr_ligand_038
    42    44
SMALL
GAST_HUCK
****
This file was generated by PARSER (from files_GN.cpp)

@<TRIPOS>ATOM
      1 S1         47.3021   14.5372    4.3030 S.3         1 MOL      -0.0382
      2 C2         45.9289   15.5745    4.3278 C.2         1 MOL       0.0813
      3 C3         45.0304   15.0742    3.3630 C.2         1 MOL       0.1014
      4 C4         45.4521   13.8850    2.7312 C.2         1 MOL       0.0465
      5 C5         46.7240   13.4451    3.1074 C.2         1 MOL       0.0450
      6 C6         45.7772   16.6936    5.1724 C.2         1 MOL       0.0555
      7 O7         44.5489   17.1769    5.4637 O.co2       1 MOL      -0.5699
      8 O8         46.8239   17.2258    5.8488 O.co2       1 MOL      -0.5699
      9 C9         47.4112   12.2966    2.6794 C.ar        1 MOL      -0.0166
     10 C10        48.2942   12.3481    1.5794 C.ar        1 MOL      -0.0360
     11 C11        49.1345   11.2533    1.2740 C.ar        1 MOL       0.0399
     12 C12        49.0304   10.0760    2.0539 C.ar        1 MOL      -0.0438
     13 C13        48.0910    9.9921    3.0987 C.ar        1 MOL      -0.0722
     14 C14        47.2863   11.1005    3.4121 C.ar        1 MOL      -0.0655
     15 BR19       44.4106   12.9630    1.4928 Br          1 MOL      -0.0668
     16 O20        43.8321   15.6553    3.0481 O.3         1 MOL      -0.3141
     17 C21        43.8988   16.7798    2.1432 C.3         1 MOL       0.1195
     18 C22        44.3546   16.4563    0.7781 C.2         1 MOL       0.0648
     19 O25        45.4819   15.7335    0.5950 O.co2       1 MOL      -0.5663
     20 O26        43.8104   17.0716   -0.2977 O.co2       1 MOL      -0.5663
     21 N29        50.0448   11.4269    0.2778 N.pl3       1 MOL      -0.3119
     22 C30        51.3244   10.7921    0.1706 C.3         1 MOL       0.0574
     23 C31        51.6018    9.9544   -1.0276 C.ar        1 MOL      -0.0218
     24 C34        52.7576    9.1315   -1.0375 C.ar        1 MOL      -0.0585
     25 C35        53.1353    8.4261   -2.1933 C.ar        1 MOL      -0.0685
     26 C36        52.3715    8.5412   -3.3664 C.ar        1 MOL      -0.0687
     27 C37        51.2233    9.3562   -3.3775 C.ar        1 MOL      -0.0685
     28 C38        50.8438   10.0600   -2.2159 C.ar        1 MOL      -0.0585
     29 H1         48.3773   13.2165    1.0430 H           1 MOL       0.0516
     30 H2         49.6281    9.2686    1.8600 H           1 MOL       0.0521
     31 H3         48.0191    9.1366    3.6516 H           1 MOL       0.0585
     32 H4         46.6258   11.0341    4.1911 H           1 MOL       0.0520
     33 H5         44.5385   17.5740    2.5355 H           1 MOL       0.0780
     34 H6         42.8872   17.1771    2.0738 H           1 MOL       0.0780
     35 H7         49.9268   12.2299   -0.2661 H           1 MOL       0.1779
     36 H8         51.5116   10.2159    1.0817 H           1 MOL       0.0675
     37 H9         52.0633   11.5957    0.1562 H           1 MOL       0.0675
     38 H10        53.3460    9.0566   -0.2038 H           1 MOL       0.0557
     39 H11        53.9767    7.8428   -2.1847 H           1 MOL       0.0599
     40 H12        52.6566    8.0448   -4.2127 H           1 MOL       0.0559
     41 H13        50.6768    9.4473   -4.2358 H           1 MOL       0.0599
     42 H14        50.0241   10.6687   -2.2524 H           1 MOL       0.0557
@<TRIPOS>BOND
     1     1     2   1
     2     1     5   1
     3     2     3   2
     4     2     6   1
     5     3     4   1
     6     3    16   1
     7     4     5   2
     8     4    15   1
     9     5     9   1
    10     6     7  ar
    11     6     8  ar
    12     9    10  ar
    13     9    14  ar
    14    10    11  ar
    15    11    12  ar
    16    11    21   1
    17    12    13  ar
    18    13    14  ar
    19    16    17   1
    20    17    18   1
    21    18    19  ar
    22    18    20  ar
    23    21    22   1
    24    22    23   1
    25    23    24  ar
    26    23    28  ar
    27    24    25  ar
    28    25    26  ar
    29    26    27  ar
    30    27    28  ar
    31    10    29   1
    32    12    30   1
    33    13    31   1
    34    14    32   1
    35    17    33   1
    36    17    34   1
    37    21    35   1
    38    22    36   1
    39    22    37   1
    40    24    38   1
    41    25    39   1
    42    26    40   1
    43    27    41   1
    44    28    42   1
@<TRIPOS>SUBSTRUCTURE
     1  MOL      2

