@<TRIPOS>MOLECULE
2qbr_ligand_018
    42    44
SMALL
GAST_HUCK
****
This file was generated by PARSER (from files_GN.cpp)

@<TRIPOS>ATOM
      1 S1         46.9406   14.3674    4.7273 S.3         1 MOL      -0.0382
      2 C2         45.9813   15.7789    4.5392 C.2         1 MOL       0.0813
      3 C3         45.4720   15.7392    3.2352 C.2         1 MOL       0.1014
      4 C4         45.8165   14.5858    2.4962 C.2         1 MOL       0.0465
      5 C5         46.6686   13.6882    3.1670 C.2         1 MOL       0.0450
      6 C6         45.8174   16.7909    5.5004 C.2         1 MOL       0.0555
      7 O7         46.8731   17.2079    6.2388 O.co2       1 MOL      -0.5699
      8 O8         44.6622   17.4837    5.6193 O.co2       1 MOL      -0.5699
      9 C9         47.2446   12.4650    2.7232 C.ar        1 MOL      -0.0166
     10 C10        48.1315   12.4139    1.6200 C.ar        1 MOL      -0.0360
     11 C11        48.7217   11.1943    1.1967 C.ar        1 MOL       0.0399
     12 C12        48.4307   10.0189    1.9189 C.ar        1 MOL      -0.0438
     13 C13        47.5609   10.0479    3.0215 C.ar        1 MOL      -0.0722
     14 C14        46.9739   11.2624    3.4157 C.ar        1 MOL      -0.0655
     15 BR19       45.0792   14.2773    0.8094 Br          1 MOL      -0.0668
     16 O20        44.7720   16.8009    2.7253 O.3         1 MOL      -0.3141
     17 C21        45.5682   17.9665    2.3948 C.3         1 MOL       0.1195
     18 C22        46.9528   18.0155    2.9123 C.2         1 MOL       0.0648
     19 O25        47.2195   18.7086    4.0419 O.co2       1 MOL      -0.5663
     20 O26        47.8039   17.0113    2.5979 O.co2       1 MOL      -0.5663
     21 N29        49.5477   11.0725    0.1233 N.pl3       1 MOL      -0.3119
     22 C30        49.4906   11.7921   -1.1136 C.3         1 MOL       0.0574
     23 C31        50.2803   13.0557   -1.1932 C.ar        1 MOL      -0.0218
     24 C34        49.8493   14.0767   -2.0748 C.ar        1 MOL      -0.0585
     25 C35        50.5826   15.2691   -2.2184 C.ar        1 MOL      -0.0685
     26 C36        51.7755   15.4476   -1.4959 C.ar        1 MOL      -0.0687
     27 C37        52.2243   14.4441   -0.6198 C.ar        1 MOL      -0.0685
     28 C38        51.4822   13.2569   -0.4692 C.ar        1 MOL      -0.0585
     29 H1         48.3682   13.2754    1.1299 H           1 MOL       0.0516
     30 H2         48.8366    9.1219    1.6386 H           1 MOL       0.0521
     31 H3         47.3483    9.1891    3.5312 H           1 MOL       0.0585
     32 H4         46.3249   11.2543    4.2052 H           1 MOL       0.0520
     33 H5         45.0389   18.8269    2.8141 H           1 MOL       0.0780
     34 H6         45.5877   18.1053    1.3081 H           1 MOL       0.0780
     35 H7         50.2337   10.3850    0.1821 H           1 MOL       0.1779
     36 H8         48.4385   11.9902   -1.3450 H           1 MOL       0.0675
     37 H9         49.8671   11.1250   -1.8937 H           1 MOL       0.0675
     38 H10        48.9907   13.9588   -2.6195 H           1 MOL       0.0557
     39 H11        50.2540   15.9963   -2.8577 H           1 MOL       0.0599
     40 H12        52.3146   16.3120   -1.6038 H           1 MOL       0.0559
     41 H13        53.0928   14.5728   -0.0968 H           1 MOL       0.0599
     42 H14        51.8385   12.5355    0.1636 H           1 MOL       0.0557
@<TRIPOS>BOND
     1     1     2   1
     2     1     5   1
     3     2     3   2
     4     2     6   1
     5     3     4   1
     6     3    16   1
     7     4     5   2
     8     4    15   1
     9     5     9   1
    10     6     7  ar
    11     6     8  ar
    12     9    10  ar
    13     9    14  ar
    14    10    11  ar
    15    11    12  ar
    16    11    21   1
    17    12    13  ar
    18    13    14  ar
    19    16    17   1
    20    17    18   1
    21    18    19  ar
    22    18    20  ar
    23    21    22   1
    24    22    23   1
    25    23    24  ar
    26    23    28  ar
    27    24    25  ar
    28    25    26  ar
    29    26    27  ar
    30    27    28  ar
    31    10    29   1
    32    12    30   1
    33    13    31   1
    34    14    32   1
    35    17    33   1
    36    17    34   1
    37    21    35   1
    38    22    36   1
    39    22    37   1
    40    24    38   1
    41    25    39   1
    42    26    40   1
    43    27    41   1
    44    28    42   1
@<TRIPOS>SUBSTRUCTURE
     1  MOL      2

