@<TRIPOS>MOLECULE
2qbr_ligand_005
    42    44
SMALL
GAST_HUCK
****
This file was generated by PARSER (from files_GN.cpp)

@<TRIPOS>ATOM
      1 S1         45.2594   14.4175    0.9967 S.3         1 MOL      -0.0382
      2 C2         45.5534   15.8630    1.8751 C.2         1 MOL       0.0813
      3 C3         46.4244   15.5490    2.9274 C.2         1 MOL       0.1014
      4 C4         46.7764   14.1766    2.9713 C.2         1 MOL       0.0465
      5 C5         46.2278   13.3673    1.9533 C.2         1 MOL       0.0450
      6 C6         44.9931   17.1124    1.5605 C.2         1 MOL       0.0555
      7 O7         44.8231   17.5024    0.2663 O.co2       1 MOL      -0.5699
      8 O8         44.3534   17.8309    2.5266 O.co2       1 MOL      -0.5699
      9 C9         46.3895   11.9781    1.6920 C.ar        1 MOL      -0.0166
     10 C10        45.2799   11.1718    1.3295 C.ar        1 MOL      -0.0360
     11 C11        45.4036    9.7838    1.0917 C.ar        1 MOL       0.0399
     12 C12        46.6682    9.1803    1.2920 C.ar        1 MOL      -0.0438
     13 C13        47.7949    9.9675    1.5922 C.ar        1 MOL      -0.0722
     14 C14        47.6610   11.3544    1.7498 C.ar        1 MOL      -0.0655
     15 BR19       47.8138   13.4559    4.3446 Br          1 MOL      -0.0668
     16 O20        46.9398   16.5857    3.6668 O.3         1 MOL      -0.3141
     17 C21        46.9647   16.6057    5.1076 C.3         1 MOL       0.1195
     18 C22        45.6974   16.2009    5.7386 C.2         1 MOL       0.0648
     19 O25        45.6422   15.0797    6.5027 O.co2       1 MOL      -0.5663
     20 O26        44.6133   16.9988    5.6142 O.co2       1 MOL      -0.5663
     21 N29        44.4123    8.9664    0.6418 N.pl3       1 MOL      -0.3119
     22 C30        43.4540    9.2125   -0.3902 C.3         1 MOL       0.0574
     23 C31        43.9282    8.5583   -1.6367 C.ar        1 MOL      -0.0218
     24 C34        45.2763    8.7010   -2.0646 C.ar        1 MOL      -0.0585
     25 C35        45.7323    8.0697   -3.2334 C.ar        1 MOL      -0.0685
     26 C36        44.8491    7.2907   -4.0064 C.ar        1 MOL      -0.0687
     27 C37        43.5073    7.1483   -3.6043 C.ar        1 MOL      -0.0685
     28 C38        43.0567    7.7697   -2.4315 C.ar        1 MOL      -0.0585
     29 H1         44.3583   11.6074    1.2757 H           1 MOL       0.0516
     30 H2         46.7895    8.1718    1.1621 H           1 MOL       0.0521
     31 H3         48.7151    9.5278    1.6623 H           1 MOL       0.0585
     32 H4         48.5115   11.9057    1.8970 H           1 MOL       0.0520
     33 H5         47.1704   17.6354    5.4123 H           1 MOL       0.0780
     34 H6         47.7904   16.0053    5.4842 H           1 MOL       0.0780
     35 H7         44.4434    8.0505    0.9540 H           1 MOL       0.1779
     36 H8         43.2990   10.2701   -0.6000 H           1 MOL       0.0675
     37 H9         42.4970    8.8020   -0.0703 H           1 MOL       0.0675
     38 H10        45.9283    9.2735   -1.5218 H           1 MOL       0.0557
     39 H11        46.7074    8.1790   -3.5298 H           1 MOL       0.0599
     40 H12        45.1762    6.8407   -4.8611 H           1 MOL       0.0559
     41 H13        42.8611    6.5933   -4.1663 H           1 MOL       0.0599
     42 H14        42.0781    7.6496   -2.1572 H           1 MOL       0.0557
@<TRIPOS>BOND
     1     1     2   1
     2     1     5   1
     3     2     3   2
     4     2     6   1
     5     3     4   1
     6     3    16   1
     7     4     5   2
     8     4    15   1
     9     5     9   1
    10     6     7  ar
    11     6     8  ar
    12     9    10  ar
    13     9    14  ar
    14    10    11  ar
    15    11    12  ar
    16    11    21   1
    17    12    13  ar
    18    13    14  ar
    19    16    17   1
    20    17    18   1
    21    18    19  ar
    22    18    20  ar
    23    21    22   1
    24    22    23   1
    25    23    24  ar
    26    23    28  ar
    27    24    25  ar
    28    25    26  ar
    29    26    27  ar
    30    27    28  ar
    31    10    29   1
    32    12    30   1
    33    13    31   1
    34    14    32   1
    35    17    33   1
    36    17    34   1
    37    21    35   1
    38    22    36   1
    39    22    37   1
    40    24    38   1
    41    25    39   1
    42    26    40   1
    43    27    41   1
    44    28    42   1
@<TRIPOS>SUBSTRUCTURE
     1  MOL      2

