@<TRIPOS>MOLECULE
2qbr_ligand_002
    42    44
SMALL
GAST_HUCK
****
This file was generated by PARSER (from files_GN.cpp)

@<TRIPOS>ATOM
      1 S1         44.0787   15.0077    1.7228 S.3         1 MOL      -0.0382
      2 C2         44.8253   15.7463    3.0810 C.2         1 MOL       0.0813
      3 C3         45.7570   14.8180    3.5836 C.2         1 MOL       0.1014
      4 C4         45.7817   13.5866    2.8976 C.2         1 MOL       0.0465
      5 C5         44.8672   13.4808    1.8338 C.2         1 MOL       0.0450
      6 C6         44.5859   17.0456    3.5421 C.2         1 MOL       0.0555
      7 O7         44.5398   18.0973    2.6977 O.co2       1 MOL      -0.5699
      8 O8         44.2054   17.2248    4.8291 O.co2       1 MOL      -0.5699
      9 C9         44.6472   12.3833    0.9672 C.ar        1 MOL      -0.0166
     10 C10        44.7586   12.5437   -0.4331 C.ar        1 MOL      -0.0360
     11 C11        44.7038   11.4367   -1.3098 C.ar        1 MOL       0.0399
     12 C12        44.4266   10.1585   -0.7502 C.ar        1 MOL      -0.0438
     13 C13        44.1956   10.0021    0.6203 C.ar        1 MOL      -0.0722
     14 C14        44.3052   11.1075    1.4821 C.ar        1 MOL      -0.0655
     15 BR19       47.0482   12.2870    3.3349 Br          1 MOL      -0.0668
     16 O20        46.6195   15.1353    4.5974 O.3         1 MOL      -0.3141
     17 C21        47.5972   16.1254    4.2270 C.3         1 MOL       0.1195
     18 C22        47.9826   16.8396    5.4458 C.2         1 MOL       0.0648
     19 O25        47.0782   17.6652    6.0195 O.co2       1 MOL      -0.5663
     20 O26        49.2818   17.1578    5.6362 O.co2       1 MOL      -0.5663
     21 N29        44.9074   11.7011   -2.6242 N.pl3       1 MOL      -0.3119
     22 C30        45.9533   11.2085   -3.4975 C.3         1 MOL       0.0574
     23 C31        46.0375    9.7642   -3.8227 C.ar        1 MOL      -0.0218
     24 C34        47.2917    9.1106   -3.8274 C.ar        1 MOL      -0.0585
     25 C35        47.3930    7.7426   -4.1439 C.ar        1 MOL      -0.0685
     26 C36        46.2386    7.0095   -4.4660 C.ar        1 MOL      -0.0687
     27 C37        44.9837    7.6509   -4.4815 C.ar        1 MOL      -0.0685
     28 C38        44.8850    9.0190   -4.1556 C.ar        1 MOL      -0.0585
     29 H1         44.9830   13.4629   -0.8191 H           1 MOL       0.0516
     30 H2         44.3209    9.3249   -1.3339 H           1 MOL       0.0521
     31 H3         43.9459    9.0831    0.9929 H           1 MOL       0.0585
     32 H4         44.1089   10.9753    2.4754 H           1 MOL       0.0520
     33 H5         47.2267   16.8670    3.5067 H           1 MOL       0.0780
     34 H6         48.4626   15.6277    3.7982 H           1 MOL       0.0780
     35 H7         44.5802   12.5713   -2.9098 H           1 MOL       0.1779
     36 H8         46.8876   11.5472   -3.0417 H           1 MOL       0.0675
     37 H9         45.8754   11.7453   -4.4486 H           1 MOL       0.0675
     38 H10        48.1551    9.6181   -3.5938 H           1 MOL       0.0557
     39 H11        48.3073    7.2817   -4.1469 H           1 MOL       0.0599
     40 H12        46.3134    6.0256   -4.7106 H           1 MOL       0.0559
     41 H13        44.1365    7.1082   -4.7080 H           1 MOL       0.0599
     42 H14        43.9612    9.4662   -4.1580 H           1 MOL       0.0557
@<TRIPOS>BOND
     1     1     2   1
     2     1     5   1
     3     2     3   2
     4     2     6   1
     5     3     4   1
     6     3    16   1
     7     4     5   2
     8     4    15   1
     9     5     9   1
    10     6     7  ar
    11     6     8  ar
    12     9    10  ar
    13     9    14  ar
    14    10    11  ar
    15    11    12  ar
    16    11    21   1
    17    12    13  ar
    18    13    14  ar
    19    16    17   1
    20    17    18   1
    21    18    19  ar
    22    18    20  ar
    23    21    22   1
    24    22    23   1
    25    23    24  ar
    26    23    28  ar
    27    24    25  ar
    28    25    26  ar
    29    26    27  ar
    30    27    28  ar
    31    10    29   1
    32    12    30   1
    33    13    31   1
    34    14    32   1
    35    17    33   1
    36    17    34   1
    37    21    35   1
    38    22    36   1
    39    22    37   1
    40    24    38   1
    41    25    39   1
    42    26    40   1
    43    27    41   1
    44    28    42   1
@<TRIPOS>SUBSTRUCTURE
     1  MOL      2

