@<TRIPOS>MOLECULE
2qbr_ligand_044
    42    44
SMALL
GAST_HUCK
****
This file was generated by PARSER (from files_GN.cpp)

@<TRIPOS>ATOM
      1 S1         43.7640   15.6411   -0.5819 S.3         1 MOL      -0.0382
      2 C2         44.0312   15.1891    1.0591 C.2         1 MOL       0.0813
      3 C3         44.3828   13.8262    1.0453 C.2         1 MOL       0.1014
      4 C4         44.3778   13.2310   -0.2349 C.2         1 MOL       0.0465
      5 C5         44.0625   14.1034   -1.2906 C.2         1 MOL       0.0450
      6 C6         43.9010   16.0637    2.1649 C.2         1 MOL       0.0555
      7 O7         43.9590   15.6068    3.4412 O.co2       1 MOL      -0.5699
      8 O8         43.7548   17.3974    1.9783 O.co2       1 MOL      -0.5699
      9 C9         43.9747   13.8348   -2.6780 C.ar        1 MOL      -0.0166
     10 C10        43.0453   12.8936   -3.1749 C.ar        1 MOL      -0.0360
     11 C11        42.9299   12.6112   -4.5553 C.ar        1 MOL       0.0399
     12 C12        43.7728   13.3047   -5.4497 C.ar        1 MOL      -0.0438
     13 C13        44.7058   14.2474   -4.9794 C.ar        1 MOL      -0.0722
     14 C14        44.8065   14.5086   -3.5997 C.ar        1 MOL      -0.0655
     15 BR19       44.8466   11.4450   -0.4977 Br          1 MOL      -0.0668
     16 O20        44.7491   13.1563    2.1795 O.3         1 MOL      -0.3141
     17 C21        46.1699   13.1792    2.4340 C.3         1 MOL       0.1195
     18 C22        46.4133   12.5497    3.7291 C.2         1 MOL       0.0648
     19 O25        45.9701   11.2865    3.9822 O.co2       1 MOL      -0.5663
     20 O26        46.8288   13.3181    4.7775 O.co2       1 MOL      -0.5663
     21 N29        42.0197   11.7516   -5.0878 N.pl3       1 MOL      -0.3119
     22 C30        41.0263   10.9762   -4.3999 C.3         1 MOL       0.0574
     23 C31        41.5820    9.7389   -3.7845 C.ar        1 MOL      -0.0218
     24 C34        41.6663    9.5913   -2.3792 C.ar        1 MOL      -0.0585
     25 C35        42.1595    8.4005   -1.8136 C.ar        1 MOL      -0.0685
     26 C36        42.5558    7.3336   -2.6432 C.ar        1 MOL      -0.0687
     27 C37        42.4727    7.4700   -4.0423 C.ar        1 MOL      -0.0685
     28 C38        41.9783    8.6581   -4.6069 C.ar        1 MOL      -0.0585
     29 H1         42.4288   12.4225   -2.5110 H           1 MOL       0.0516
     30 H2         43.7246   13.1253   -6.4598 H           1 MOL       0.0521
     31 H3         45.3143   14.7382   -5.6384 H           1 MOL       0.0585
     32 H4         45.4943   15.1948   -3.2744 H           1 MOL       0.0520
     33 H5         46.5618   14.2096    2.4645 H           1 MOL       0.0780
     34 H6         46.7098   12.6207    1.6492 H           1 MOL       0.0780
     35 H7         42.0249   11.6589   -6.0588 H           1 MOL       0.1779
     36 H8         40.2674   10.6803   -5.1317 H           1 MOL       0.0675
     37 H9         40.5175   11.6164   -3.6673 H           1 MOL       0.0675
     38 H10        41.3705   10.3470   -1.7527 H           1 MOL       0.0557
     39 H11        42.2348    8.3092   -0.7981 H           1 MOL       0.0599
     40 H12        42.9027    6.4663   -2.2352 H           1 MOL       0.0559
     41 H13        42.7577    6.7024   -4.6462 H           1 MOL       0.0599
     42 H14        41.9297    8.7466   -5.6223 H           1 MOL       0.0557
@<TRIPOS>BOND
     1     1     2   1
     2     1     5   1
     3     2     3   2
     4     2     6   1
     5     3     4   1
     6     3    16   1
     7     4     5   2
     8     4    15   1
     9     5     9   1
    10     6     7  ar
    11     6     8  ar
    12     9    10  ar
    13     9    14  ar
    14    10    11  ar
    15    11    12  ar
    16    11    21   1
    17    12    13  ar
    18    13    14  ar
    19    16    17   1
    20    17    18   1
    21    18    19  ar
    22    18    20  ar
    23    21    22   1
    24    22    23   1
    25    23    24  ar
    26    23    28  ar
    27    24    25  ar
    28    25    26  ar
    29    26    27  ar
    30    27    28  ar
    31    10    29   1
    32    12    30   1
    33    13    31   1
    34    14    32   1
    35    17    33   1
    36    17    34   1
    37    21    35   1
    38    22    36   1
    39    22    37   1
    40    24    38   1
    41    25    39   1
    42    26    40   1
    43    27    41   1
    44    28    42   1
@<TRIPOS>SUBSTRUCTURE
     1  MOL      2

