@<TRIPOS>MOLECULE
2qbr_ligand_015
    42    44
SMALL
GAST_HUCK
****
This file was generated by PARSER (from files_GN.cpp)

@<TRIPOS>ATOM
      1 S1         46.6855   14.3485    4.7888 S.3         1 MOL      -0.0382
      2 C2         45.9259   15.8753    4.5960 C.2         1 MOL       0.0813
      3 C3         45.3278   15.8878    3.3347 C.2         1 MOL       0.1014
      4 C4         45.4491   14.6867    2.6128 C.2         1 MOL       0.0465
      5 C5         46.1835   13.6914    3.2728 C.2         1 MOL       0.0450
      6 C6         45.9476   16.9107    5.5283 C.2         1 MOL       0.0555
      7 O7         47.0553   17.1547    6.2718 O.co2       1 MOL      -0.5699
      8 O8         44.8555   17.6757    5.7513 O.co2       1 MOL      -0.5699
      9 C9         46.4840   12.3971    2.8185 C.ar        1 MOL      -0.0166
     10 C10        45.4586   11.5724    2.3098 C.ar        1 MOL      -0.0360
     11 C11        45.7515   10.3380    1.6905 C.ar        1 MOL       0.0399
     12 C12        47.0909    9.8861    1.6712 C.ar        1 MOL      -0.0438
     13 C13        48.1202   10.6662    2.2327 C.ar        1 MOL      -0.0722
     14 C14        47.8163   11.9254    2.7919 C.ar        1 MOL      -0.0655
     15 BR19       44.7728   14.5021    0.8856 Br          1 MOL      -0.0668
     16 O20        44.7031   17.0103    2.8712 O.3         1 MOL      -0.3141
     17 C21        45.5712   18.0757    2.3959 C.3         1 MOL       0.1195
     18 C22        46.9688   18.1022    2.8773 C.2         1 MOL       0.0648
     19 O25        47.2646   18.7703    4.0202 O.co2       1 MOL      -0.5663
     20 O26        47.7839   17.0677    2.5494 O.co2       1 MOL      -0.5663
     21 N29        44.7130    9.6989    1.1101 N.pl3       1 MOL      -0.3119
     22 C30        44.7140    8.8543   -0.0344 C.3         1 MOL       0.0574
     23 C31        43.8501    9.5399   -1.0234 C.ar        1 MOL      -0.0218
     24 C34        44.2894   10.7414   -1.6302 C.ar        1 MOL      -0.0585
     25 C35        43.4187   11.4962   -2.4390 C.ar        1 MOL      -0.0685
     26 C36        42.1057   11.0466   -2.6650 C.ar        1 MOL      -0.0687
     27 C37        41.6598    9.8485   -2.0762 C.ar        1 MOL      -0.0685
     28 C38        42.5267    9.0996   -1.2587 C.ar        1 MOL      -0.0585
     29 H1         44.4846   11.9092    2.3358 H           1 MOL       0.0516
     30 H2         47.3263    8.9814    1.2656 H           1 MOL       0.0521
     31 H3         49.0801   10.3376    2.1993 H           1 MOL       0.0585
     32 H4         48.5793   12.5036    3.1422 H           1 MOL       0.0520
     33 H5         45.0994   19.0082    2.7104 H           1 MOL       0.0780
     34 H6         45.5731   18.0767    1.2981 H           1 MOL       0.0780
     35 H7         43.8273    9.9971    1.3933 H           1 MOL       0.1779
     36 H8         44.3083    7.8796    0.2651 H           1 MOL       0.0675
     37 H9         45.6983    8.6842   -0.4733 H           1 MOL       0.0675
     38 H10        45.2286   11.1021   -1.4453 H           1 MOL       0.0557
     39 H11        43.7312   12.3830   -2.8378 H           1 MOL       0.0599
     40 H12        41.4685   11.5975   -3.2420 H           1 MOL       0.0559
     41 H13        40.6955    9.5362   -2.2134 H           1 MOL       0.0599
     42 H14        42.1725    8.2589   -0.8002 H           1 MOL       0.0557
@<TRIPOS>BOND
     1     1     2   1
     2     1     5   1
     3     2     3   2
     4     2     6   1
     5     3     4   1
     6     3    16   1
     7     4     5   2
     8     4    15   1
     9     5     9   1
    10     6     7  ar
    11     6     8  ar
    12     9    10  ar
    13     9    14  ar
    14    10    11  ar
    15    11    12  ar
    16    11    21   1
    17    12    13  ar
    18    13    14  ar
    19    16    17   1
    20    17    18   1
    21    18    19  ar
    22    18    20  ar
    23    21    22   1
    24    22    23   1
    25    23    24  ar
    26    23    28  ar
    27    24    25  ar
    28    25    26  ar
    29    26    27  ar
    30    27    28  ar
    31    10    29   1
    32    12    30   1
    33    13    31   1
    34    14    32   1
    35    17    33   1
    36    17    34   1
    37    21    35   1
    38    22    36   1
    39    22    37   1
    40    24    38   1
    41    25    39   1
    42    26    40   1
    43    27    41   1
    44    28    42   1
@<TRIPOS>SUBSTRUCTURE
     1  MOL      2

