@<TRIPOS>MOLECULE
2qbr_ligand_001
    42    44
SMALL
GAST_HUCK
****
This file was generated by PARSER (from files_GN.cpp)

@<TRIPOS>ATOM
      1 S1         44.0784   15.1812    1.7977 S.3         1 MOL      -0.0382
      2 C2         44.9083   15.8697    3.1412 C.2         1 MOL       0.0813
      3 C3         45.8517   14.9263    3.5685 C.2         1 MOL       0.1014
      4 C4         45.8388   13.7192    2.8400 C.2         1 MOL       0.0465
      5 C5         44.8779   13.6491    1.8117 C.2         1 MOL       0.0450
      6 C6         44.6468   17.1291    3.6943 C.2         1 MOL       0.0555
      7 O7         44.5288   18.2205    2.8971 O.co2       1 MOL      -0.5699
      8 O8         44.2447   17.2456    4.9869 O.co2       1 MOL      -0.5699
      9 C9         44.5504   12.5826    0.9298 C.ar        1 MOL      -0.0166
     10 C10        44.2901   12.8160   -0.4518 C.ar        1 MOL      -0.0360
     11 C11        44.0012   11.7634   -1.3478 C.ar        1 MOL       0.0399
     12 C12        44.0088   10.4439   -0.8470 C.ar        1 MOL      -0.0438
     13 C13        44.1688   10.1912    0.5260 C.ar        1 MOL      -0.0722
     14 C14        44.4297   11.2514    1.4058 C.ar        1 MOL      -0.0655
     15 BR19       47.1127   12.4112    3.2039 Br          1 MOL      -0.0668
     16 O20        46.6925   15.1834    4.6013 O.3         1 MOL      -0.3141
     17 C21        47.7061   16.1543    4.2828 C.3         1 MOL       0.1195
     18 C22        48.0156   16.8964    5.5167 C.2         1 MOL       0.0648
     19 O25        47.0427   17.6416    6.0937 O.co2       1 MOL      -0.5663
     20 O26        49.2927   17.1658    5.8622 O.co2       1 MOL      -0.5663
     21 N29        43.7113   11.9179   -2.6687 N.pl3       1 MOL      -0.3119
     22 C30        42.7788   12.8271   -3.2593 C.3         1 MOL       0.0574
     23 C31        42.8818   14.2889   -2.9890 C.ar        1 MOL      -0.0218
     24 C34        41.7992   15.0006   -2.4191 C.ar        1 MOL      -0.0585
     25 C35        41.8496   16.3965   -2.2739 C.ar        1 MOL      -0.0685
     26 C36        42.9904   17.1081   -2.6924 C.ar        1 MOL      -0.0687
     27 C37        44.0837   16.4093   -3.2384 C.ar        1 MOL      -0.0685
     28 C38        44.0317   15.0100   -3.3812 C.ar        1 MOL      -0.0585
     29 H1         44.3732   13.7626   -0.8056 H           1 MOL       0.0516
     30 H2         43.8036    9.6513   -1.4653 H           1 MOL       0.0521
     31 H3         44.1049    9.2322    0.8841 H           1 MOL       0.0585
     32 H4         44.5017   11.0489    2.4076 H           1 MOL       0.0520
     33 H5         47.3863   16.8845    3.5306 H           1 MOL       0.0780
     34 H6         48.6035   15.6484    3.9257 H           1 MOL       0.0780
     35 H7         43.8484   11.1163   -3.1967 H           1 MOL       0.1779
     36 H8         41.7842   12.4664   -2.9872 H           1 MOL       0.0675
     37 H9         42.8605   12.6904   -4.3356 H           1 MOL       0.0675
     38 H10        40.9473   14.5094   -2.1302 H           1 MOL       0.0557
     39 H11        41.0574   16.9008   -1.8688 H           1 MOL       0.0599
     40 H12        43.0197   18.1222   -2.6084 H           1 MOL       0.0559
     41 H13        44.9155   16.9256   -3.5388 H           1 MOL       0.0599
     42 H14        44.8297   14.5227   -3.8055 H           1 MOL       0.0557
@<TRIPOS>BOND
     1     1     2   1
     2     1     5   1
     3     2     3   2
     4     2     6   1
     5     3     4   1
     6     3    16   1
     7     4     5   2
     8     4    15   1
     9     5     9   1
    10     6     7  ar
    11     6     8  ar
    12     9    10  ar
    13     9    14  ar
    14    10    11  ar
    15    11    12  ar
    16    11    21   1
    17    12    13  ar
    18    13    14  ar
    19    16    17   1
    20    17    18   1
    21    18    19  ar
    22    18    20  ar
    23    21    22   1
    24    22    23   1
    25    23    24  ar
    26    23    28  ar
    27    24    25  ar
    28    25    26  ar
    29    26    27  ar
    30    27    28  ar
    31    10    29   1
    32    12    30   1
    33    13    31   1
    34    14    32   1
    35    17    33   1
    36    17    34   1
    37    21    35   1
    38    22    36   1
    39    22    37   1
    40    24    38   1
    41    25    39   1
    42    26    40   1
    43    27    41   1
    44    28    42   1
@<TRIPOS>SUBSTRUCTURE
     1  MOL      2

