@<TRIPOS>MOLECULE
2qbr_ligand_011
    42    44
SMALL
GAST_HUCK
****
This file was generated by PARSER (from files_GN.cpp)

@<TRIPOS>ATOM
      1 S1         45.4024   14.4478    0.1748 S.3         1 MOL      -0.0382
      2 C2         44.7844   15.3130    1.5285 C.2         1 MOL       0.0813
      3 C3         45.2908   14.6829    2.6764 C.2         1 MOL       0.1014
      4 C4         46.1182   13.5662    2.4052 C.2         1 MOL       0.0465
      5 C5         46.3279   13.2891    1.0438 C.2         1 MOL       0.0450
      6 C6         44.0135   16.4877    1.4326 C.2         1 MOL       0.0555
      7 O7         43.3122   16.7521    0.3111 O.co2       1 MOL      -0.5699
      8 O8         44.0799   17.4702    2.3619 O.co2       1 MOL      -0.5699
      9 C9         47.2694   12.4351    0.4241 C.ar        1 MOL      -0.0166
     10 C10        46.9292   11.6229   -0.6873 C.ar        1 MOL      -0.0360
     11 C11        47.9200   10.9196   -1.4125 C.ar        1 MOL       0.0399
     12 C12        49.2731   11.0779   -1.0338 C.ar        1 MOL      -0.0438
     13 C13        49.6178   11.8291    0.1026 C.ar        1 MOL      -0.0722
     14 C14        48.6231   12.4910    0.8329 C.ar        1 MOL      -0.0655
     15 BR19       46.8474   12.4971    3.7499 Br          1 MOL      -0.0668
     16 O20        44.9895   15.1260    3.9423 O.3         1 MOL      -0.3141
     17 C21        46.1147   15.5892    4.7204 C.3         1 MOL       0.1195
     18 C22        45.8072   16.8401    5.4390 C.2         1 MOL       0.0648
     19 O25        46.7789   17.4766    6.1380 O.co2       1 MOL      -0.5663
     20 O26        44.5493   17.3289    5.5171 O.co2       1 MOL      -0.5663
     21 N29        47.6860   10.1070   -2.4786 N.pl3       1 MOL      -0.3119
     22 C30        46.8695    8.9296   -2.5086 C.3         1 MOL       0.0574
     23 C31        45.4756    8.9853   -2.0027 C.ar        1 MOL      -0.0218
     24 C34        45.1910    8.5881   -0.6721 C.ar        1 MOL      -0.0585
     25 C35        43.8677    8.5461   -0.1957 C.ar        1 MOL      -0.0685
     26 C36        42.8033    8.8853   -1.0578 C.ar        1 MOL      -0.0687
     27 C37        43.0644    9.2991   -2.3788 C.ar        1 MOL      -0.0685
     28 C38        44.3930    9.3452   -2.8471 C.ar        1 MOL      -0.0585
     29 H1         45.9623   11.6010   -1.0083 H           1 MOL       0.0516
     30 H2         50.0195   10.6097   -1.5507 H           1 MOL       0.0521
     31 H3         50.5959   11.9146    0.3801 H           1 MOL       0.0585
     32 H4         48.9132   13.0652    1.6277 H           1 MOL       0.0520
     33 H5         46.9962   15.7937    4.1006 H           1 MOL       0.0780
     34 H6         46.3669   14.8314    5.4580 H           1 MOL       0.0780
     35 H7         48.4334   10.0530   -3.0983 H           1 MOL       0.1779
     36 H8         47.4277    8.1529   -1.9800 H           1 MOL       0.0675
     37 H9         46.8237    8.6068   -3.5481 H           1 MOL       0.0675
     38 H10        45.9493    8.3256   -0.0350 H           1 MOL       0.0557
     39 H11        43.6837    8.2525    0.7641 H           1 MOL       0.0599
     40 H12        41.8399    8.8425   -0.7184 H           1 MOL       0.0559
     41 H13        42.2900    9.5471   -3.0004 H           1 MOL       0.0599
     42 H14        44.5693    9.6383   -3.8088 H           1 MOL       0.0557
@<TRIPOS>BOND
     1     1     2   1
     2     1     5   1
     3     2     3   2
     4     2     6   1
     5     3     4   1
     6     3    16   1
     7     4     5   2
     8     4    15   1
     9     5     9   1
    10     6     7  ar
    11     6     8  ar
    12     9    10  ar
    13     9    14  ar
    14    10    11  ar
    15    11    12  ar
    16    11    21   1
    17    12    13  ar
    18    13    14  ar
    19    16    17   1
    20    17    18   1
    21    18    19  ar
    22    18    20  ar
    23    21    22   1
    24    22    23   1
    25    23    24  ar
    26    23    28  ar
    27    24    25  ar
    28    25    26  ar
    29    26    27  ar
    30    27    28  ar
    31    10    29   1
    32    12    30   1
    33    13    31   1
    34    14    32   1
    35    17    33   1
    36    17    34   1
    37    21    35   1
    38    22    36   1
    39    22    37   1
    40    24    38   1
    41    25    39   1
    42    26    40   1
    43    27    41   1
    44    28    42   1
@<TRIPOS>SUBSTRUCTURE
     1  MOL      2

