@<TRIPOS>MOLECULE
2qbr_ligand_033
    42    44
SMALL
GAST_HUCK
****
This file was generated by PARSER (from files_GN.cpp)

@<TRIPOS>ATOM
      1 S1         45.1092   14.1458    1.0167 S.3         1 MOL      -0.0382
      2 C2         44.9685   15.6386    1.8641 C.2         1 MOL       0.0813
      3 C3         45.7247   15.5178    3.0463 C.2         1 MOL       0.1014
      4 C4         46.3560   14.2678    3.2003 C.2         1 MOL       0.0465
      5 C5         46.1257   13.3578    2.1594 C.2         1 MOL       0.0450
      6 C6         44.2124   16.7460    1.4352 C.2         1 MOL       0.0555
      7 O7         43.7114   17.6245    2.3441 O.co2       1 MOL      -0.5699
      8 O8         43.8720   16.8922    0.1279 O.co2       1 MOL      -0.5699
      9 C9         46.5950   12.0394    2.0198 C.ar        1 MOL      -0.0166
     10 C10        45.6676   11.0153    1.7183 C.ar        1 MOL      -0.0360
     11 C11        46.1132    9.7319    1.3211 C.ar        1 MOL       0.0399
     12 C12        47.4974    9.4483    1.3461 C.ar        1 MOL      -0.0438
     13 C13        48.4178   10.4290    1.7522 C.ar        1 MOL      -0.0722
     14 C14        47.9737   11.7250    2.0699 C.ar        1 MOL      -0.0655
     15 BR19       47.3439   13.8586    4.7239 Br          1 MOL      -0.0668
     16 O20        45.8423   16.5174    3.9697 O.3         1 MOL      -0.3141
     17 C21        47.0134   17.3533    3.7954 C.3         1 MOL       0.1195
     18 C22        47.7760   17.4299    5.0535 C.2         1 MOL       0.0648
     19 O25        47.3704   16.7700    6.1637 O.co2       1 MOL      -0.5663
     20 O26        48.9410   18.1157    5.1068 O.co2       1 MOL      -0.5663
     21 N29        45.1817    8.8754    0.8173 N.pl3       1 MOL      -0.3119
     22 C30        45.2328    8.4865   -0.5607 C.3         1 MOL       0.0574
     23 C31        45.0048    9.7246   -1.3640 C.ar        1 MOL      -0.0218
     24 C34        46.0949   10.4843   -1.8475 C.ar        1 MOL      -0.0585
     25 C35        45.8823   11.7331   -2.4629 C.ar        1 MOL      -0.0685
     26 C36        44.5786   12.2373   -2.6040 C.ar        1 MOL      -0.0687
     27 C37        43.4862   11.5064   -2.1087 C.ar        1 MOL      -0.0685
     28 C38        43.6962   10.2578   -1.4937 C.ar        1 MOL      -0.0585
     29 H1         44.6629   11.2272    1.6642 H           1 MOL       0.0516
     30 H2         47.8447    8.5254    1.0732 H           1 MOL       0.0521
     31 H3         49.4201   10.2199    1.7822 H           1 MOL       0.0585
     32 H4         48.6546   12.4560    2.2926 H           1 MOL       0.0520
     33 H5         46.6909   18.3585    3.5251 H           1 MOL       0.0780
     34 H6         47.7021   17.0036    3.0143 H           1 MOL       0.0780
     35 H7         44.2645    9.0291    1.1470 H           1 MOL       0.1779
     36 H8         44.4377    7.7754   -0.7470 H           1 MOL       0.0675
     37 H9         46.1721    8.0004   -0.8064 H           1 MOL       0.0675
     38 H10        47.0564   10.1490   -1.7110 H           1 MOL       0.0557
     39 H11        46.6806   12.2788   -2.7868 H           1 MOL       0.0599
     40 H12        44.4282   13.1456   -3.0284 H           1 MOL       0.0559
     41 H13        42.5406   11.8870   -2.1740 H           1 MOL       0.0599
     42 H14        42.8895    9.7467   -1.1056 H           1 MOL       0.0557
@<TRIPOS>BOND
     1     1     2   1
     2     1     5   1
     3     2     3   2
     4     2     6   1
     5     3     4   1
     6     3    16   1
     7     4     5   2
     8     4    15   1
     9     5     9   1
    10     6     7  ar
    11     6     8  ar
    12     9    10  ar
    13     9    14  ar
    14    10    11  ar
    15    11    12  ar
    16    11    21   1
    17    12    13  ar
    18    13    14  ar
    19    16    17   1
    20    17    18   1
    21    18    19  ar
    22    18    20  ar
    23    21    22   1
    24    22    23   1
    25    23    24  ar
    26    23    28  ar
    27    24    25  ar
    28    25    26  ar
    29    26    27  ar
    30    27    28  ar
    31    10    29   1
    32    12    30   1
    33    13    31   1
    34    14    32   1
    35    17    33   1
    36    17    34   1
    37    21    35   1
    38    22    36   1
    39    22    37   1
    40    24    38   1
    41    25    39   1
    42    26    40   1
    43    27    41   1
    44    28    42   1
@<TRIPOS>SUBSTRUCTURE
     1  MOL      2

