@<TRIPOS>MOLECULE
2qbr_ligand_031
    42    44
SMALL
GAST_HUCK
****
This file was generated by PARSER (from files_GN.cpp)

@<TRIPOS>ATOM
      1 S1         45.0835   17.4298    1.7893 S.3         1 MOL      -0.0382
      2 C2         46.2614   17.1710    3.0400 C.2         1 MOL       0.0813
      3 C3         46.7712   15.9017    2.8660 C.2         1 MOL       0.1014
      4 C4         46.2140   15.1896    1.7605 C.2         1 MOL       0.0465
      5 C5         45.2940   15.9079    0.9771 C.2         1 MOL       0.0450
      6 C6         46.4137   18.0378    4.1123 C.2         1 MOL       0.0555
      7 O7         47.5398   18.7939    4.1563 O.co2       1 MOL      -0.5699
      8 O8         45.8032   17.7671    5.2939 O.co2       1 MOL      -0.5699
      9 C9         44.5434   15.5031   -0.1582 C.ar        1 MOL      -0.0166
     10 C10        44.9555   14.4093   -0.9476 C.ar        1 MOL      -0.0360
     11 C11        44.0924   13.7783   -1.8803 C.ar        1 MOL       0.0399
     12 C12        42.8515   14.3741   -2.1466 C.ar        1 MOL      -0.0438
     13 C13        42.4777   15.5645   -1.4996 C.ar        1 MOL      -0.0722
     14 C14        43.3091   16.1202   -0.5003 C.ar        1 MOL      -0.0655
     15 BR19       46.5893   13.3657    1.6019 Br          1 MOL      -0.0668
     16 O20        47.6833   15.2705    3.6893 O.3         1 MOL      -0.3141
     17 C21        47.3536   15.0324    5.0907 C.3         1 MOL       0.1195
     18 C22        45.9251   14.7893    5.3687 C.2         1 MOL       0.0648
     19 O25        45.5560   14.4361    6.6257 O.co2       1 MOL      -0.5663
     20 O26        44.9798   15.5182    4.7222 O.co2       1 MOL      -0.5663
     21 N29        44.5235   12.5974   -2.3794 N.pl3       1 MOL      -0.3119
     22 C30        43.7361   11.4252   -2.6202 C.3         1 MOL       0.0574
     23 C31        44.5042   10.2701   -2.0941 C.ar        1 MOL      -0.0218
     24 C34        44.1104    9.6032   -0.8960 C.ar        1 MOL      -0.0585
     25 C35        44.9150    8.5868   -0.3435 C.ar        1 MOL      -0.0685
     26 C36        46.1186    8.2191   -0.9681 C.ar        1 MOL      -0.0687
     27 C37        46.5161    8.8580   -2.1574 C.ar        1 MOL      -0.0685
     28 C38        45.7139    9.8746   -2.7098 C.ar        1 MOL      -0.0585
     29 H1         45.8741   13.9931   -0.7922 H           1 MOL       0.0516
     30 H2         42.2123   13.9552   -2.8263 H           1 MOL       0.0521
     31 H3         41.5729   15.9963   -1.7064 H           1 MOL       0.0585
     32 H4         42.9625   16.9343    0.0089 H           1 MOL       0.0520
     33 H5         47.7136   15.8501    5.7280 H           1 MOL       0.0780
     34 H6         47.9214   14.1401    5.3953 H           1 MOL       0.0780
     35 H7         45.4828   12.4297   -2.2976 H           1 MOL       0.1779
     36 H8         43.5674   11.3096   -3.6940 H           1 MOL       0.0675
     37 H9         42.7580   11.4895   -2.1354 H           1 MOL       0.0675
     38 H10        43.2575    9.8784   -0.4125 H           1 MOL       0.0557
     39 H11        44.6275    8.1269    0.5228 H           1 MOL       0.0599
     40 H12        46.7083    7.4960   -0.5596 H           1 MOL       0.0559
     41 H13        47.3906    8.5925   -2.6109 H           1 MOL       0.0599
     42 H14        46.0336   10.3478   -3.5618 H           1 MOL       0.0557
@<TRIPOS>BOND
     1     1     2   1
     2     1     5   1
     3     2     3   2
     4     2     6   1
     5     3     4   1
     6     3    16   1
     7     4     5   2
     8     4    15   1
     9     5     9   1
    10     6     7  ar
    11     6     8  ar
    12     9    10  ar
    13     9    14  ar
    14    10    11  ar
    15    11    12  ar
    16    11    21   1
    17    12    13  ar
    18    13    14  ar
    19    16    17   1
    20    17    18   1
    21    18    19  ar
    22    18    20  ar
    23    21    22   1
    24    22    23   1
    25    23    24  ar
    26    23    28  ar
    27    24    25  ar
    28    25    26  ar
    29    26    27  ar
    30    27    28  ar
    31    10    29   1
    32    12    30   1
    33    13    31   1
    34    14    32   1
    35    17    33   1
    36    17    34   1
    37    21    35   1
    38    22    36   1
    39    22    37   1
    40    24    38   1
    41    25    39   1
    42    26    40   1
    43    27    41   1
    44    28    42   1
@<TRIPOS>SUBSTRUCTURE
     1  MOL      2

