@<TRIPOS>MOLECULE
2qbr_ligand_037
    42    44
SMALL
GAST_HUCK
****
This file was generated by PARSER (from files_GN.cpp)

@<TRIPOS>ATOM
      1 S1         45.1114   14.1185    0.7885 S.3         1 MOL      -0.0382
      2 C2         46.0172   13.9537    2.2381 C.2         1 MOL       0.0813
      3 C3         46.2400   15.2585    2.7040 C.2         1 MOL       0.1014
      4 C4         45.7127   16.2802    1.8826 C.2         1 MOL       0.0465
      5 C5         45.0232   15.8372    0.7364 C.2         1 MOL       0.0450
      6 C6         46.4334   12.7289    2.7935 C.2         1 MOL       0.0555
      7 O7         47.2529   12.6795    3.8669 O.co2       1 MOL      -0.5699
      8 O8         46.0631   11.5546    2.2367 O.co2       1 MOL      -0.5699
      9 C9         44.4189   16.5545   -0.3428 C.ar        1 MOL      -0.0166
     10 C10        43.3055   16.0109   -1.0350 C.ar        1 MOL      -0.0360
     11 C11        42.7787   16.6055   -2.2040 C.ar        1 MOL       0.0399
     12 C12        43.3630   17.8121   -2.6609 C.ar        1 MOL      -0.0438
     13 C13        44.4325   18.3999   -1.9630 C.ar        1 MOL      -0.0722
     14 C14        44.9594   17.7695   -0.8260 C.ar        1 MOL      -0.0655
     15 BR19       45.9073   18.0635    2.3897 Br          1 MOL      -0.0668
     16 O20        46.9601   15.5166    3.8438 O.3         1 MOL      -0.3141
     17 C21        46.2141   15.4545    5.0767 C.3         1 MOL       0.1195
     18 C22        45.8674   16.8029    5.5416 C.2         1 MOL       0.0648
     19 O25        46.7745   17.5066    6.2551 O.co2       1 MOL      -0.5663
     20 O26        44.5818   17.2218    5.5415 O.co2       1 MOL      -0.5663
     21 N29        41.7732   15.9468   -2.8373 N.pl3       1 MOL      -0.3119
     22 C30        41.3945   16.0658   -4.2129 C.3         1 MOL       0.0574
     23 C31        42.3226   15.2609   -5.0479 C.ar        1 MOL      -0.0218
     24 C34        43.2925   15.8752   -5.8789 C.ar        1 MOL      -0.0585
     25 C35        44.2010   15.0971   -6.6231 C.ar        1 MOL      -0.0685
     26 C36        44.1537   13.6950   -6.5372 C.ar        1 MOL      -0.0687
     27 C37        43.1955   13.0703   -5.7175 C.ar        1 MOL      -0.0685
     28 C38        42.2859   13.8477   -4.9782 C.ar        1 MOL      -0.0585
     29 H1         42.8902   15.1326   -0.7077 H           1 MOL       0.0516
     30 H2         43.0215   18.2829   -3.4985 H           1 MOL       0.0521
     31 H3         44.8427   19.2744   -2.2986 H           1 MOL       0.0585
     32 H4         45.7757   18.1989   -0.3908 H           1 MOL       0.0520
     33 H5         46.8640   14.9997    5.8228 H           1 MOL       0.0780
     34 H6         45.3154   14.8314    5.0137 H           1 MOL       0.0780
     35 H7         41.4017   15.1788   -2.3706 H           1 MOL       0.1779
     36 H8         41.3538   17.1088   -4.5271 H           1 MOL       0.0675
     37 H9         40.3795   15.6735   -4.3282 H           1 MOL       0.0675
     38 H10        43.3553   16.8922   -5.9360 H           1 MOL       0.0557
     39 H11        44.8915   15.5515   -7.2270 H           1 MOL       0.0599
     40 H12        44.8094   13.1247   -7.0746 H           1 MOL       0.0559
     41 H13        43.1624   12.0519   -5.6612 H           1 MOL       0.0599
     42 H14        41.6014   13.3769   -4.3804 H           1 MOL       0.0557
@<TRIPOS>BOND
     1     1     2   1
     2     1     5   1
     3     2     3   2
     4     2     6   1
     5     3     4   1
     6     3    16   1
     7     4     5   2
     8     4    15   1
     9     5     9   1
    10     6     7  ar
    11     6     8  ar
    12     9    10  ar
    13     9    14  ar
    14    10    11  ar
    15    11    12  ar
    16    11    21   1
    17    12    13  ar
    18    13    14  ar
    19    16    17   1
    20    17    18   1
    21    18    19  ar
    22    18    20  ar
    23    21    22   1
    24    22    23   1
    25    23    24  ar
    26    23    28  ar
    27    24    25  ar
    28    25    26  ar
    29    26    27  ar
    30    27    28  ar
    31    10    29   1
    32    12    30   1
    33    13    31   1
    34    14    32   1
    35    17    33   1
    36    17    34   1
    37    21    35   1
    38    22    36   1
    39    22    37   1
    40    24    38   1
    41    25    39   1
    42    26    40   1
    43    27    41   1
    44    28    42   1
@<TRIPOS>SUBSTRUCTURE
     1  MOL      2

