@<TRIPOS>MOLECULE
2qbr_ligand_007
    42    44
SMALL
GAST_HUCK
****
This file was generated by PARSER (from files_GN.cpp)

@<TRIPOS>ATOM
      1 S1         45.2265   14.4434    0.1931 S.3         1 MOL      -0.0382
      2 C2         44.7272   15.3273    1.5811 C.2         1 MOL       0.0813
      3 C3         45.2367   14.6520    2.7051 C.2         1 MOL       0.1014
      4 C4         45.9713   13.4842    2.3899 C.2         1 MOL       0.0465
      5 C5         46.0832   13.2065    1.0197 C.2         1 MOL       0.0450
      6 C6         44.0372   16.5506    1.4975 C.2         1 MOL       0.0555
      7 O7         43.4411   16.9223    0.3376 O.co2       1 MOL      -0.5699
      8 O8         44.1695   17.4979    2.4535 O.co2       1 MOL      -0.5699
      9 C9         46.9227   12.3140    0.3166 C.ar        1 MOL      -0.0166
     10 C10        48.3190   12.3852    0.5027 C.ar        1 MOL      -0.0360
     11 C11        49.2047   11.8247   -0.4376 C.ar        1 MOL       0.0399
     12 C12        48.6765   11.0391   -1.4931 C.ar        1 MOL      -0.0438
     13 C13        47.2883   10.8529   -1.6106 C.ar        1 MOL      -0.0722
     14 C14        46.4085   11.5011   -0.7225 C.ar        1 MOL      -0.0655
     15 BR19       46.6998   12.3773    3.6955 Br          1 MOL      -0.0668
     16 O20        45.0207   15.1212    3.9760 O.3         1 MOL      -0.3141
     17 C21        46.1830   15.6347    4.6637 C.3         1 MOL       0.1195
     18 C22        45.8577   16.8669    5.3899 C.2         1 MOL       0.0648
     19 O25        46.8177   17.4945    6.1088 O.co2       1 MOL      -0.5663
     20 O26        44.5847   17.3144    5.4885 O.co2       1 MOL      -0.5663
     21 N29        50.5152   12.1203   -0.2733 N.pl3       1 MOL      -0.3119
     22 C30        51.5070   12.3261   -1.2864 C.3         1 MOL       0.0574
     23 C31        52.2227   13.5736   -0.9255 C.ar        1 MOL      -0.0218
     24 C34        51.8781   14.8105   -1.5265 C.ar        1 MOL      -0.0585
     25 C35        52.4766   16.0101   -1.0896 C.ar        1 MOL      -0.0685
     26 C36        53.4299   15.9911   -0.0566 C.ar        1 MOL      -0.0687
     27 C37        53.7777   14.7696    0.5474 C.ar        1 MOL      -0.0685
     28 C38        53.1770   13.5698    0.1208 C.ar        1 MOL      -0.0585
     29 H1         48.7071   13.0013    1.2212 H           1 MOL       0.0516
     30 H2         49.2870   10.6064   -2.1891 H           1 MOL       0.0521
     31 H3         46.9044   10.2731   -2.3627 H           1 MOL       0.0585
     32 H4         45.4008   11.4172   -0.8691 H           1 MOL       0.0520
     33 H5         47.0127   15.8664    3.9831 H           1 MOL       0.0780
     34 H6         46.5177   14.8922    5.3859 H           1 MOL       0.0780
     35 H7         50.7980   12.3917    0.6130 H           1 MOL       0.1779
     36 H8         51.0656   12.4210   -2.2806 H           1 MOL       0.0675
     37 H9         52.1939   11.4691   -1.2984 H           1 MOL       0.0675
     38 H10        51.1711   14.8540   -2.2649 H           1 MOL       0.0557
     39 H11        52.2241   16.8964   -1.5338 H           1 MOL       0.0599
     40 H12        53.8564   16.8599    0.2677 H           1 MOL       0.0559
     41 H13        54.4761   14.7464    1.2997 H           1 MOL       0.0599
     42 H14        53.4207   12.6952    0.5943 H           1 MOL       0.0557
@<TRIPOS>BOND
     1     1     2   1
     2     1     5   1
     3     2     3   2
     4     2     6   1
     5     3     4   1
     6     3    16   1
     7     4     5   2
     8     4    15   1
     9     5     9   1
    10     6     7  ar
    11     6     8  ar
    12     9    10  ar
    13     9    14  ar
    14    10    11  ar
    15    11    12  ar
    16    11    21   1
    17    12    13  ar
    18    13    14  ar
    19    16    17   1
    20    17    18   1
    21    18    19  ar
    22    18    20  ar
    23    21    22   1
    24    22    23   1
    25    23    24  ar
    26    23    28  ar
    27    24    25  ar
    28    25    26  ar
    29    26    27  ar
    30    27    28  ar
    31    10    29   1
    32    12    30   1
    33    13    31   1
    34    14    32   1
    35    17    33   1
    36    17    34   1
    37    21    35   1
    38    22    36   1
    39    22    37   1
    40    24    38   1
    41    25    39   1
    42    26    40   1
    43    27    41   1
    44    28    42   1
@<TRIPOS>SUBSTRUCTURE
     1  MOL      2

