@<TRIPOS>MOLECULE
2qbr_ligand_016
    42    44
SMALL
GAST_HUCK
****
This file was generated by PARSER (from files_GN.cpp)

@<TRIPOS>ATOM
      1 S1         45.0525   14.5898    0.1560 S.3         1 MOL      -0.0382
      2 C2         44.7724   15.4925    1.5904 C.2         1 MOL       0.0813
      3 C3         45.2558   14.7237    2.6590 C.2         1 MOL       0.1014
      4 C4         45.8220   13.4870    2.2766 C.2         1 MOL       0.0465
      5 C5         45.7986   13.2320    0.8959 C.2         1 MOL       0.0450
      6 C6         44.1435   16.7494    1.5995 C.2         1 MOL       0.0555
      7 O7         44.2944   17.6179    2.6195 O.co2       1 MOL      -0.5699
      8 O8         43.4017   17.1518    0.5410 O.co2       1 MOL      -0.5699
      9 C9         46.2356   12.0899    0.1825 C.ar        1 MOL      -0.0166
     10 C10        45.3259   11.3559   -0.6184 C.ar        1 MOL      -0.0360
     11 C11        45.7158   10.1722   -1.2844 C.ar        1 MOL       0.0399
     12 C12        47.0635    9.7487   -1.1682 C.ar        1 MOL      -0.0438
     13 C13        47.9901   10.4993   -0.4261 C.ar        1 MOL      -0.0722
     14 C14        47.5776   11.6588    0.2518 C.ar        1 MOL      -0.0655
     15 BR19       46.4533   12.2500    3.5171 Br          1 MOL      -0.0668
     16 O20        45.0800   15.1249    3.9589 O.3         1 MOL      -0.3141
     17 C21        46.2495   15.6238    4.6411 C.3         1 MOL       0.1195
     18 C22        45.9285   16.8729    5.3483 C.2         1 MOL       0.0648
     19 O25        46.8838   17.5114    6.0626 O.co2       1 MOL      -0.5663
     20 O26        44.6493   17.2876    5.4960 O.co2       1 MOL      -0.5663
     21 N29        44.7637    9.5049   -1.9890 N.pl3       1 MOL      -0.3119
     22 C30        44.7890    8.1251   -2.3614 C.3         1 MOL       0.0574
     23 C31        43.7708    7.8161   -3.3977 C.ar        1 MOL      -0.0218
     24 C34        43.8908    8.3750   -4.6914 C.ar        1 MOL      -0.0585
     25 C35        42.9693    8.0536   -5.7047 C.ar        1 MOL      -0.0685
     26 C36        41.9049    7.1758   -5.4330 C.ar        1 MOL      -0.0687
     27 C37        41.7652    6.6185   -4.1505 C.ar        1 MOL      -0.0685
     28 C38        42.6932    6.9346   -3.1385 C.ar        1 MOL      -0.0585
     29 H1         44.3474   11.6545   -0.6760 H           1 MOL       0.0516
     30 H2         47.3864    8.8997   -1.6334 H           1 MOL       0.0521
     31 H3         48.9662   10.1945   -0.3631 H           1 MOL       0.0585
     32 H4         48.2734   12.1887    0.7846 H           1 MOL       0.0520
     33 H5         47.0797   15.8318    3.9561 H           1 MOL       0.0780
     34 H6         46.5755   14.8820    5.3739 H           1 MOL       0.0780
     35 H7         43.9501    9.9943   -2.1954 H           1 MOL       0.1779
     36 H8         44.6159    7.5388   -1.4561 H           1 MOL       0.0675
     37 H9         45.7694    7.8526   -2.7606 H           1 MOL       0.0675
     38 H10        44.6642    9.0068   -4.9104 H           1 MOL       0.0557
     39 H11        43.0746    8.4556   -6.6399 H           1 MOL       0.0599
     40 H12        41.2368    6.9398   -6.1708 H           1 MOL       0.0559
     41 H13        40.9899    5.9803   -3.9544 H           1 MOL       0.0599
     42 H14        42.5809    6.5130   -2.2131 H           1 MOL       0.0557
@<TRIPOS>BOND
     1     1     2   1
     2     1     5   1
     3     2     3   2
     4     2     6   1
     5     3     4   1
     6     3    16   1
     7     4     5   2
     8     4    15   1
     9     5     9   1
    10     6     7  ar
    11     6     8  ar
    12     9    10  ar
    13     9    14  ar
    14    10    11  ar
    15    11    12  ar
    16    11    21   1
    17    12    13  ar
    18    13    14  ar
    19    16    17   1
    20    17    18   1
    21    18    19  ar
    22    18    20  ar
    23    21    22   1
    24    22    23   1
    25    23    24  ar
    26    23    28  ar
    27    24    25  ar
    28    25    26  ar
    29    26    27  ar
    30    27    28  ar
    31    10    29   1
    32    12    30   1
    33    13    31   1
    34    14    32   1
    35    17    33   1
    36    17    34   1
    37    21    35   1
    38    22    36   1
    39    22    37   1
    40    24    38   1
    41    25    39   1
    42    26    40   1
    43    27    41   1
    44    28    42   1
@<TRIPOS>SUBSTRUCTURE
     1  MOL      2

