@<TRIPOS>MOLECULE
2qbr_ligand_040
    42    44
SMALL
GAST_HUCK
****
This file was generated by PARSER (from files_GN.cpp)

@<TRIPOS>ATOM
      1 S1         44.9360   16.9504    2.6547 S.3         1 MOL      -0.0382
      2 C2         45.6522   16.2351    4.0464 C.2         1 MOL       0.0813
      3 C3         45.7520   14.8633    3.7654 C.2         1 MOL       0.1014
      4 C4         45.1640   14.4707    2.5433 C.2         1 MOL       0.0465
      5 C5         44.7007   15.5189    1.7231 C.2         1 MOL       0.0450
      6 C6         46.0263   16.9362    5.2170 C.2         1 MOL       0.0555
      7 O7         47.0819   16.5359    5.9676 O.co2       1 MOL      -0.5699
      8 O8         45.1100   17.7415    5.8144 O.co2       1 MOL      -0.5699
      9 C9         44.0755   15.4733    0.4373 C.ar        1 MOL      -0.0166
     10 C10        44.3488   14.4166   -0.4691 C.ar        1 MOL      -0.0360
     11 C11        43.6483   14.2781   -1.6914 C.ar        1 MOL       0.0399
     12 C12        42.7387   15.2943   -2.0687 C.ar        1 MOL      -0.0438
     13 C13        42.5129   16.3872   -1.2222 C.ar        1 MOL      -0.0722
     14 C14        43.1648   16.4750    0.0184 C.ar        1 MOL      -0.0655
     15 BR19       44.8316   12.6644    2.2175 Br          1 MOL      -0.0668
     16 O20        46.2976   13.9820    4.6626 O.3         1 MOL      -0.3141
     17 C21        47.7092   13.7692    4.4710 C.3         1 MOL       0.1195
     18 C22        47.9798   12.8009    3.3948 C.2         1 MOL       0.0648
     19 O25        47.5887   11.5094    3.5222 O.co2       1 MOL      -0.5663
     20 O26        48.5342   13.1947    2.2212 O.co2       1 MOL      -0.5663
     21 N29        43.8909   13.1397   -2.4003 N.pl3       1 MOL      -0.3119
     22 C30        43.1469   12.6007   -3.4958 C.3         1 MOL       0.0574
     23 C31        42.1028   11.6815   -2.9784 C.ar        1 MOL      -0.0218
     24 C34        40.7437   12.0722   -2.9327 C.ar        1 MOL      -0.0585
     25 C35        39.7645   11.2074   -2.4021 C.ar        1 MOL      -0.0685
     26 C36        40.1354    9.9425   -1.9076 C.ar        1 MOL      -0.0687
     27 C37        41.4840    9.5410   -1.9495 C.ar        1 MOL      -0.0685
     28 C38        42.4579   10.4070   -2.4733 C.ar        1 MOL      -0.0585
     29 H1         45.0634   13.7221   -0.2213 H           1 MOL       0.0516
     30 H2         42.2236   15.2479   -2.9463 H           1 MOL       0.0521
     31 H3         41.8665   17.1231   -1.5118 H           1 MOL       0.0585
     32 H4         42.9402   17.2580    0.6310 H           1 MOL       0.0520
     33 H5         48.1069   13.3501    5.3960 H           1 MOL       0.0780
     34 H6         48.2520   14.7011    4.2762 H           1 MOL       0.0780
     35 H7         44.5483   12.5314   -2.0181 H           1 MOL       0.1779
     36 H8         43.8333   12.0416   -4.1379 H           1 MOL       0.0675
     37 H9         42.7166   13.3786   -4.1264 H           1 MOL       0.0675
     38 H10        40.4559   12.9871   -3.2743 H           1 MOL       0.0557
     39 H11        38.7854   11.4981   -2.3609 H           1 MOL       0.0599
     40 H12        39.4237    9.3099   -1.5186 H           1 MOL       0.0559
     41 H13        41.7550    8.6194   -1.5862 H           1 MOL       0.0599
     42 H14        43.4337   10.1001   -2.4846 H           1 MOL       0.0557
@<TRIPOS>BOND
     1     1     2   1
     2     1     5   1
     3     2     3   2
     4     2     6   1
     5     3     4   1
     6     3    16   1
     7     4     5   2
     8     4    15   1
     9     5     9   1
    10     6     7  ar
    11     6     8  ar
    12     9    10  ar
    13     9    14  ar
    14    10    11  ar
    15    11    12  ar
    16    11    21   1
    17    12    13  ar
    18    13    14  ar
    19    16    17   1
    20    17    18   1
    21    18    19  ar
    22    18    20  ar
    23    21    22   1
    24    22    23   1
    25    23    24  ar
    26    23    28  ar
    27    24    25  ar
    28    25    26  ar
    29    26    27  ar
    30    27    28  ar
    31    10    29   1
    32    12    30   1
    33    13    31   1
    34    14    32   1
    35    17    33   1
    36    17    34   1
    37    21    35   1
    38    22    36   1
    39    22    37   1
    40    24    38   1
    41    25    39   1
    42    26    40   1
    43    27    41   1
    44    28    42   1
@<TRIPOS>SUBSTRUCTURE
     1  MOL      2

