@<TRIPOS>MOLECULE
2qbr_ligand_020
    42    44
SMALL
GAST_HUCK
****
This file was generated by PARSER (from files_GN.cpp)

@<TRIPOS>ATOM
      1 S1         45.2263   13.7987    0.6531 S.3         1 MOL      -0.0382
      2 C2         45.4742   13.5991    2.3515 C.2         1 MOL       0.0813
      3 C3         45.1582   14.8260    2.9536 C.2         1 MOL       0.1014
      4 C4         44.7364   15.8258    2.0514 C.2         1 MOL       0.0465
      5 C5         44.7427   15.4479    0.6988 C.2         1 MOL       0.0450
      6 C6         45.9047   12.4058    2.9615 C.2         1 MOL       0.0555
      7 O7         46.7582   12.4264    4.0172 O.co2       1 MOL      -0.5699
      8 O8         45.5467   11.2028    2.4515 O.co2       1 MOL      -0.5699
      9 C9         44.4038   16.2262   -0.4293 C.ar        1 MOL      -0.0166
     10 C10        43.5235   15.7121   -1.4149 C.ar        1 MOL      -0.0360
     11 C11        43.1786   16.4696   -2.5615 C.ar        1 MOL       0.0399
     12 C12        43.7571   17.7462   -2.7233 C.ar        1 MOL      -0.0438
     13 C13        44.6151   18.2798   -1.7455 C.ar        1 MOL      -0.0722
     14 C14        44.9170   17.5303   -0.5967 C.ar        1 MOL      -0.0655
     15 BR19       44.0940   17.4707    2.6362 Br          1 MOL      -0.0668
     16 O20        45.0823   14.9754    4.3163 O.3         1 MOL      -0.3141
     17 C21        46.2412   15.5580    4.9551 C.3         1 MOL       0.1195
     18 C22        45.9028   16.8720    5.5310 C.2         1 MOL       0.0648
     19 O25        46.8302   17.5354    6.2683 O.co2       1 MOL      -0.5663
     20 O26        44.6138   17.2923    5.5945 O.co2       1 MOL      -0.5663
     21 N29        42.2772   16.1005   -3.5126 N.pl3       1 MOL      -0.3119
     22 C30        41.1648   15.2115   -3.3990 C.3         1 MOL       0.0574
     23 C31        39.9552   16.0157   -3.0770 C.ar        1 MOL      -0.0218
     24 C34        39.8846   16.7416   -1.8646 C.ar        1 MOL      -0.0585
     25 C35        38.7671   17.5486   -1.5697 C.ar        1 MOL      -0.0685
     26 C36        37.7065   17.6346   -2.4844 C.ar        1 MOL      -0.0687
     27 C37        37.7537   16.9096   -3.6874 C.ar        1 MOL      -0.0685
     28 C38        38.8700   16.1017   -3.9811 C.ar        1 MOL      -0.0585
     29 H1         43.1246   14.7870   -1.2789 H           1 MOL       0.0516
     30 H2         43.5469   18.3203   -3.5507 H           1 MOL       0.0521
     31 H3         44.9993   19.2250   -1.8582 H           1 MOL       0.0585
     32 H4         45.5428   17.9410    0.1035 H           1 MOL       0.0520
     33 H5         47.1088   15.6866    4.2904 H           1 MOL       0.0780
     34 H6         46.5298   14.8965    5.7758 H           1 MOL       0.0780
     35 H7         42.3161   16.6021   -4.3454 H           1 MOL       0.1779
     36 H8         41.2966   14.4352   -2.6447 H           1 MOL       0.0675
     37 H9         41.0634   14.6983   -4.3585 H           1 MOL       0.0675
     38 H10        40.6461   16.6903   -1.1831 H           1 MOL       0.0557
     39 H11        38.7380   18.0736   -0.6934 H           1 MOL       0.0599
     40 H12        36.8961   18.2197   -2.2749 H           1 MOL       0.0559
     41 H13        36.9783   16.9655   -4.3473 H           1 MOL       0.0599
     42 H14        38.8909   15.5914   -4.8667 H           1 MOL       0.0557
@<TRIPOS>BOND
     1     1     2   1
     2     1     5   1
     3     2     3   2
     4     2     6   1
     5     3     4   1
     6     3    16   1
     7     4     5   2
     8     4    15   1
     9     5     9   1
    10     6     7  ar
    11     6     8  ar
    12     9    10  ar
    13     9    14  ar
    14    10    11  ar
    15    11    12  ar
    16    11    21   1
    17    12    13  ar
    18    13    14  ar
    19    16    17   1
    20    17    18   1
    21    18    19  ar
    22    18    20  ar
    23    21    22   1
    24    22    23   1
    25    23    24  ar
    26    23    28  ar
    27    24    25  ar
    28    25    26  ar
    29    26    27  ar
    30    27    28  ar
    31    10    29   1
    32    12    30   1
    33    13    31   1
    34    14    32   1
    35    17    33   1
    36    17    34   1
    37    21    35   1
    38    22    36   1
    39    22    37   1
    40    24    38   1
    41    25    39   1
    42    26    40   1
    43    27    41   1
    44    28    42   1
@<TRIPOS>SUBSTRUCTURE
     1  MOL      2

