@<TRIPOS>MOLECULE
2qbr_ligand_021
    42    44
SMALL
GAST_HUCK
****
This file was generated by PARSER (from files_GN.cpp)

@<TRIPOS>ATOM
      1 S1         47.1797   14.2563    4.7246 S.3         1 MOL      -0.0382
      2 C2         46.2071   15.6596    4.4911 C.2         1 MOL       0.0813
      3 C3         45.7880   15.6632    3.1560 C.2         1 MOL       0.1014
      4 C4         46.2460   14.5616    2.4095 C.2         1 MOL       0.0465
      5 C5         47.0568   13.6529    3.1146 C.2         1 MOL       0.0450
      6 C6         45.8730   16.6051    5.4684 C.2         1 MOL       0.0555
      7 O7         46.8389   17.2610    6.1492 O.co2       1 MOL      -0.5699
      8 O8         44.5992   17.0549    5.5924 O.co2       1 MOL      -0.5699
      9 C9         47.4596   12.3761    2.6802 C.ar        1 MOL      -0.0166
     10 C10        48.1769   12.1797    1.4744 C.ar        1 MOL      -0.0360
     11 C11        48.4122   10.8813    0.9711 C.ar        1 MOL       0.0399
     12 C12        47.9205    9.7668    1.6897 C.ar        1 MOL      -0.0438
     13 C13        47.2911    9.9454    2.9307 C.ar        1 MOL      -0.0722
     14 C14        47.0763   11.2494    3.4340 C.ar        1 MOL      -0.0655
     15 BR19       45.6622   14.2887    0.6554 Br          1 MOL      -0.0668
     16 O20        44.9675   16.6310    2.6648 O.3         1 MOL      -0.3141
     17 C21        45.5111   17.9632    2.4724 C.3         1 MOL       0.1195
     18 C22        46.8763   18.2517    2.9398 C.2         1 MOL       0.0648
     19 O25        47.0675   18.9786    4.0721 O.co2       1 MOL      -0.5663
     20 O26        47.9076   17.4834    2.5132 O.co2       1 MOL      -0.5663
     21 N29        49.1784   10.5909   -0.1141 N.pl3       1 MOL      -0.3119
     22 C30        50.4711   11.1546   -0.3695 C.3         1 MOL       0.0574
     23 C31        51.4573   10.0983   -0.0160 C.ar        1 MOL      -0.0218
     24 C34        52.4820    9.7192   -0.9107 C.ar        1 MOL      -0.0585
     25 C35        53.3170    8.6207   -0.6136 C.ar        1 MOL      -0.0685
     26 C36        53.1449    7.9049    0.5823 C.ar        1 MOL      -0.0687
     27 C37        52.1374    8.2773    1.4916 C.ar        1 MOL      -0.0685
     28 C38        51.3097    9.3776    1.1911 C.ar        1 MOL      -0.0585
     29 H1         48.4756   12.9956    0.9383 H           1 MOL       0.0516
     30 H2         48.0599    8.8122    1.3469 H           1 MOL       0.0521
     31 H3         46.9964    9.1334    3.4751 H           1 MOL       0.0585
     32 H4         46.5882   11.3451    4.3268 H           1 MOL       0.0520
     33 H5         44.8397   18.6556    2.9841 H           1 MOL       0.0780
     34 H6         45.4652   18.2029    1.4039 H           1 MOL       0.0780
     35 H7         49.0341    9.7232   -0.5278 H           1 MOL       0.1779
     36 H8         50.6758   12.0406    0.2323 H           1 MOL       0.0675
     37 H9         50.5183   11.4397   -1.4175 H           1 MOL       0.0675
     38 H10        52.6035   10.2039   -1.8036 H           1 MOL       0.0557
     39 H11        54.0463    8.3407   -1.2713 H           1 MOL       0.0599
     40 H12        53.7605    7.1115    0.8029 H           1 MOL       0.0559
     41 H13        52.0138    7.7645    2.3664 H           1 MOL       0.0599
     42 H14        50.5549    9.6057    1.8382 H           1 MOL       0.0557
@<TRIPOS>BOND
     1     1     2   1
     2     1     5   1
     3     2     3   2
     4     2     6   1
     5     3     4   1
     6     3    16   1
     7     4     5   2
     8     4    15   1
     9     5     9   1
    10     6     7  ar
    11     6     8  ar
    12     9    10  ar
    13     9    14  ar
    14    10    11  ar
    15    11    12  ar
    16    11    21   1
    17    12    13  ar
    18    13    14  ar
    19    16    17   1
    20    17    18   1
    21    18    19  ar
    22    18    20  ar
    23    21    22   1
    24    22    23   1
    25    23    24  ar
    26    23    28  ar
    27    24    25  ar
    28    25    26  ar
    29    26    27  ar
    30    27    28  ar
    31    10    29   1
    32    12    30   1
    33    13    31   1
    34    14    32   1
    35    17    33   1
    36    17    34   1
    37    21    35   1
    38    22    36   1
    39    22    37   1
    40    24    38   1
    41    25    39   1
    42    26    40   1
    43    27    41   1
    44    28    42   1
@<TRIPOS>SUBSTRUCTURE
     1  MOL      2

