@<TRIPOS>MOLECULE
2qft_ligand_001
    16    15
SMALL
GAST_HUCK
****
This file was generated by PARSER (from files_GN.cpp)

@<TRIPOS>ATOM
      1 P1         56.2151   10.3094   29.4360 P.3         1 GPJ       0.1070
      2 O1         55.4341    9.1775   29.8692 O.co2       1 GPJ      -0.5587
      3 O2         55.8002   10.6159   28.0915 O.co2       1 GPJ      -0.5587
      4 O3         55.8584   11.4362   30.2578 O.co2       1 GPJ      -0.5587
      5 O4         60.4552    8.2788   32.7382 O.co2       1 GPJ      -0.5645
      6 O5         60.5002   10.3643   31.7387 O.co2       1 GPJ      -0.5645
      7 C1         57.8548   10.0260   29.4739 C.3         1 GPJ       0.0369
      8 C2         59.5925    8.4844   30.4535 C.3         1 GPJ       0.0207
      9 C3         60.1336    9.0676   31.6915 C.2         1 GPJ       0.0813
     10 N1         58.1640    8.8312   30.2872 N.4         1 GPJ       0.2507
     11 H1         58.3633   10.9013   29.8818 H           1 GPJ       0.1013
     12 H2         58.2112    9.8656   28.4546 H           1 GPJ       0.1013
     13 H3         59.6542    7.3972   30.5166 H           1 GPJ       0.0989
     14 H4         60.1903    8.7938   29.5926 H           1 GPJ       0.0989
     15 H5         57.6997    8.0297   29.8479 H           1 GPJ       0.2042
     16 H6         57.7621    8.9732   31.2172 H           1 GPJ       0.2042
@<TRIPOS>BOND
     1     1     2  ar
     2     1     3  ar
     3     1     4  ar
     4     7     1   1
     5     9     5  ar
     6     9     6  ar
     7    10     7   1
     8     8     9   1
     9     8    10   1
    10     7    11   1
    11     7    12   1
    12     8    13   1
    13     8    14   1
    14    10    15   1
    15    10    16   1
@<TRIPOS>SUBSTRUCTURE
     1  GPJ      7

