@<TRIPOS>MOLECULE
2qft_ligand_021
    16    15
SMALL
GAST_HUCK
****
This file was generated by PARSER (from files_GN.cpp)

@<TRIPOS>ATOM
      1 P1         56.0285    3.7133   25.8463 P.3         1 GPJ       0.1070
      2 O1         56.6818    3.3668   27.0802 O.co2       1 GPJ      -0.5587
      3 O2         56.6192    4.9174   25.3237 O.co2       1 GPJ      -0.5587
      4 O3         56.2701    2.6570   24.8989 O.co2       1 GPJ      -0.5587
      5 O4         52.3720    7.4391   27.4484 O.co2       1 GPJ      -0.5645
      6 O5         54.1388    7.8851   28.8847 O.co2       1 GPJ      -0.5645
      7 C1         54.3933    3.9237   26.0465 C.3         1 GPJ       0.0369
      8 C2         54.4730    6.2436   27.0898 C.3         1 GPJ       0.0207
      9 C3         53.6188    7.1433   27.8809 C.2         1 GPJ       0.0813
     10 N1         53.9932    4.8424   27.1404 N.4         1 GPJ       0.2507
     11 H1         53.9552    2.9485   26.2617 H           1 GPJ       0.1013
     12 H2         53.9711    4.2699   25.1017 H           1 GPJ       0.1013
     13 H3         55.4963    6.2848   27.4704 H           1 GPJ       0.0989
     14 H4         54.4812    6.6015   26.0603 H           1 GPJ       0.0989
     15 H5         54.2821    4.4336   28.0295 H           1 GPJ       0.2042
     16 H6         52.9762    4.8629   27.1260 H           1 GPJ       0.2042
@<TRIPOS>BOND
     1     1     2  ar
     2     1     3  ar
     3     1     4  ar
     4     7     1   1
     5     9     5  ar
     6     9     6  ar
     7    10     7   1
     8     8     9   1
     9     8    10   1
    10     7    11   1
    11     7    12   1
    12     8    13   1
    13     8    14   1
    14    10    15   1
    15    10    16   1
@<TRIPOS>SUBSTRUCTURE
     1  GPJ      7

