@<TRIPOS>MOLECULE
2qft_ligand_018
    16    15
SMALL
GAST_HUCK
****
This file was generated by PARSER (from files_GN.cpp)

@<TRIPOS>ATOM
      1 P1         54.3678   12.3165   26.8647 P.3         1 GPJ       0.1070
      2 O1         54.2044   13.7110   27.1837 O.co2       1 GPJ      -0.5587
      3 O2         53.3244   12.0262   25.9127 O.co2       1 GPJ      -0.5587
      4 O3         55.6258   12.2155   26.1678 O.co2       1 GPJ      -0.5587
      5 O4         53.9013    7.5217   28.8810 O.co2       1 GPJ      -0.5645
      6 O5         55.0889    8.2713   27.0240 O.co2       1 GPJ      -0.5645
      7 C1         54.3455   11.3523   28.2276 C.3         1 GPJ       0.0369
      8 C2         52.9447    9.3410   27.5752 C.3         1 GPJ       0.0207
      9 C3         53.9933    8.3395   27.8120 C.2         1 GPJ       0.0813
     10 N1         53.0952   10.5707   28.3831 N.4         1 GPJ       0.2507
     11 H1         54.4513   11.9931   29.1034 H           1 GPJ       0.1013
     12 H2         55.2072   10.6815   28.2191 H           1 GPJ       0.1013
     13 H3         51.9862    8.8872   27.8305 H           1 GPJ       0.0989
     14 H4         52.9208    9.6041   26.5142 H           1 GPJ       0.0989
     15 H5         52.3085   11.1669   28.1491 H           1 GPJ       0.2042
     16 H6         53.0050   10.3120   29.3705 H           1 GPJ       0.2042
@<TRIPOS>BOND
     1     1     2  ar
     2     1     3  ar
     3     1     4  ar
     4     7     1   1
     5     9     5  ar
     6     9     6  ar
     7    10     7   1
     8     8     9   1
     9     8    10   1
    10     7    11   1
    11     7    12   1
    12     8    13   1
    13     8    14   1
    14    10    15   1
    15    10    16   1
@<TRIPOS>SUBSTRUCTURE
     1  GPJ      7

