@<TRIPOS>MOLECULE
2qft_ligand_023
    16    15
SMALL
GAST_HUCK
****
This file was generated by PARSER (from files_GN.cpp)

@<TRIPOS>ATOM
      1 P1         60.2592    8.7307   28.0651 P.3         1 GPJ       0.1070
      2 O1         61.4968    9.4629   27.9918 O.co2       1 GPJ      -0.5587
      3 O2         59.3294    9.3790   27.1758 O.co2       1 GPJ      -0.5587
      4 O3         60.5267    7.4230   27.5229 O.co2       1 GPJ      -0.5587
      5 O4         57.4662    6.9791   27.9551 O.co2       1 GPJ      -0.5645
      6 O5         55.8904    8.6780   27.7505 O.co2       1 GPJ      -0.5645
      7 C1         59.7310    8.6371   29.6478 C.3         1 GPJ       0.0369
      8 C2         57.1922    8.5317   29.8355 C.3         1 GPJ       0.0207
      9 C3         56.8660    8.0779   28.4688 C.2         1 GPJ       0.0813
     10 N1         58.4408    9.3268   29.9225 N.4         1 GPJ       0.2507
     11 H1         60.4848    9.1106   30.2792 H           1 GPJ       0.1013
     12 H2         59.6832    7.5890   29.9541 H           1 GPJ       0.1013
     13 H3         57.2540    7.6701   30.5066 H           1 GPJ       0.0989
     14 H4         56.3810    9.1701   30.1956 H           1 GPJ       0.0989
     15 H5         58.3552   10.1365   29.3026 H           1 GPJ       0.2042
     16 H6         58.4826    9.6814   30.8844 H           1 GPJ       0.2042
@<TRIPOS>BOND
     1     1     2  ar
     2     1     3  ar
     3     1     4  ar
     4     7     1   1
     5     9     5  ar
     6     9     6  ar
     7    10     7   1
     8     8     9   1
     9     8    10   1
    10     7    11   1
    11     7    12   1
    12     8    13   1
    13     8    14   1
    14    10    15   1
    15    10    16   1
@<TRIPOS>SUBSTRUCTURE
     1  GPJ      7

