@<TRIPOS>MOLECULE
2qft_ligand_007
    16    15
SMALL
GAST_HUCK
****
This file was generated by PARSER (from files_GN.cpp)

@<TRIPOS>ATOM
      1 P1         53.8947    8.7295   27.8782 P.3         1 GPJ       0.1070
      2 O1         54.8664    8.2164   26.9380 O.co2       1 GPJ      -0.5587
      3 O2         52.6004    8.7952   27.2314 O.co2       1 GPJ      -0.5587
      4 O3         53.7736    7.7660   28.9452 O.co2       1 GPJ      -0.5587
      5 O4         55.4579   14.1608   27.0868 O.co2       1 GPJ      -0.5645
      6 O5         56.4288   12.0989   27.4965 O.co2       1 GPJ      -0.5645
      7 C1         54.3695   10.1825   28.5185 C.3         1 GPJ       0.0369
      8 C2         54.0364   12.1638   26.9259 C.3         1 GPJ       0.0207
      9 C3         55.3356   12.8153   27.1537 C.2         1 GPJ       0.0813
     10 N1         53.5847   11.3545   28.0776 N.4         1 GPJ       0.2507
     11 H1         55.4329   10.3326   28.3339 H           1 GPJ       0.1013
     12 H2         54.2305   10.1232   29.5981 H           1 GPJ       0.1013
     13 H3         54.0630   11.5537   26.0252 H           1 GPJ       0.0989
     14 H4         53.2848   12.9353   26.7780 H           1 GPJ       0.0989
     15 H5         53.5417   11.9798   28.8746 H           1 GPJ       0.2042
     16 H6         52.6316   11.0362   27.8743 H           1 GPJ       0.2042
@<TRIPOS>BOND
     1     1     2  ar
     2     1     3  ar
     3     1     4  ar
     4     7     1   1
     5     9     5  ar
     6     9     6  ar
     7    10     7   1
     8     8     9   1
     9     8    10   1
    10     7    11   1
    11     7    12   1
    12     8    13   1
    13     8    14   1
    14    10    15   1
    15    10    16   1
@<TRIPOS>SUBSTRUCTURE
     1  GPJ      7

