@<TRIPOS>MOLECULE
2qft_ligand_016
    16    15
SMALL
GAST_HUCK
****
This file was generated by PARSER (from files_GN.cpp)

@<TRIPOS>ATOM
      1 P1         55.4035   12.7578   27.3522 P.3         1 GPJ       0.1070
      2 O1         56.5083   12.2038   26.6105 O.co2       1 GPJ      -0.5587
      3 O2         55.6373   12.5072   28.7575 O.co2       1 GPJ      -0.5587
      4 O3         55.4441   14.1867   27.1439 O.co2       1 GPJ      -0.5587
      5 O4         52.4042    8.2548   27.8370 O.co2       1 GPJ      -0.5645
      6 O5         53.5388    8.4412   29.8675 O.co2       1 GPJ      -0.5645
      7 C1         53.9458   12.1593   26.8020 C.3         1 GPJ       0.0369
      8 C2         53.2098   10.4684   28.5184 C.3         1 GPJ       0.0207
      9 C3         53.0829    9.0163   28.7282 C.2         1 GPJ       0.0813
     10 N1         53.6782   10.7377   27.1376 N.4         1 GPJ       0.2507
     11 H1         53.9510   12.2451   25.7141 H           1 GPJ       0.1013
     12 H2         53.1381   12.7929   27.1746 H           1 GPJ       0.1013
     13 H3         53.9130   10.8737   29.2473 H           1 GPJ       0.0989
     14 H4         52.2375   10.9390   28.6749 H           1 GPJ       0.0989
     15 H5         54.5093   10.1637   26.9575 H           1 GPJ       0.2042
     16 H6         52.9470   10.4103   26.5040 H           1 GPJ       0.2042
@<TRIPOS>BOND
     1     1     2  ar
     2     1     3  ar
     3     1     4  ar
     4     7     1   1
     5     9     5  ar
     6     9     6  ar
     7    10     7   1
     8     8     9   1
     9     8    10   1
    10     7    11   1
    11     7    12   1
    12     8    13   1
    13     8    14   1
    14    10    15   1
    15    10    16   1
@<TRIPOS>SUBSTRUCTURE
     1  GPJ      7

