@<TRIPOS>MOLECULE
2qft_ligand_028
    16    15
SMALL
GAST_HUCK
****
This file was generated by PARSER (from files_GN.cpp)

@<TRIPOS>ATOM
      1 P1         53.1573    9.2691   28.7512 P.3         1 GPJ       0.1070
      2 O1         52.0866    8.8149   27.9010 O.co2       1 GPJ      -0.5587
      3 O2         52.6718   10.2946   29.6385 O.co2       1 GPJ      -0.5587
      4 O3         53.5848    8.1553   29.5568 O.co2       1 GPJ      -0.5587
      5 O4         54.7105   13.5992   25.1151 O.co2       1 GPJ      -0.5645
      6 O5         52.6971   12.4831   24.7741 O.co2       1 GPJ      -0.5645
      7 C1         54.4209    9.8141   27.8275 C.3         1 GPJ       0.0369
      8 C2         53.8885   12.1001   26.8768 C.3         1 GPJ       0.0207
      9 C3         53.7518   12.7609   25.5725 C.2         1 GPJ       0.0813
     10 N1         53.9803   10.6367   26.6793 N.4         1 GPJ       0.2507
     11 H1         54.9353    8.9400   27.4228 H           1 GPJ       0.1013
     12 H2         55.1327   10.3557   28.4532 H           1 GPJ       0.1013
     13 H3         53.0138   12.3450   27.4800 H           1 GPJ       0.0989
     14 H4         54.7805   12.4749   27.3849 H           1 GPJ       0.0989
     15 H5         53.0740   10.2933   26.3542 H           1 GPJ       0.2042
     16 H6         54.6534   10.4771   25.9321 H           1 GPJ       0.2042
@<TRIPOS>BOND
     1     1     2  ar
     2     1     3  ar
     3     1     4  ar
     4     7     1   1
     5     9     5  ar
     6     9     6  ar
     7    10     7   1
     8     8     9   1
     9     8    10   1
    10     7    11   1
    11     7    12   1
    12     8    13   1
    13     8    14   1
    14    10    15   1
    15    10    16   1
@<TRIPOS>SUBSTRUCTURE
     1  GPJ      7

