@<TRIPOS>MOLECULE
2qft_ligand_025
    16    15
SMALL
GAST_HUCK
****
This file was generated by PARSER (from files_GN.cpp)

@<TRIPOS>ATOM
      1 P1         60.5209    9.3682   27.2105 P.3         1 GPJ       0.1070
      2 O1         60.5408    8.0676   26.5854 O.co2       1 GPJ      -0.5587
      3 O2         61.6832    9.4749   28.0606 O.co2       1 GPJ      -0.5587
      4 O3         60.6632   10.3500   26.1611 O.co2       1 GPJ      -0.5587
      5 O4         54.8334    9.0288   27.2702 O.co2       1 GPJ      -0.5645
      6 O5         55.7988    6.8836   27.3717 O.co2       1 GPJ      -0.5645
      7 C1         59.1334    9.6379   28.1083 C.3         1 GPJ       0.0369
      8 C2         56.8620    8.7306   28.6259 C.3         1 GPJ       0.0207
      9 C3         55.7935    8.1904   27.7567 C.2         1 GPJ       0.0813
     10 N1         58.1723    8.5168   27.9639 N.4         1 GPJ       0.2507
     11 H1         58.6688   10.5660   27.7688 H           1 GPJ       0.1013
     12 H2         59.4009    9.7400   29.1685 H           1 GPJ       0.1013
     13 H3         56.8428    8.1943   29.5808 H           1 GPJ       0.0989
     14 H4         56.6653    9.7881   28.8219 H           1 GPJ       0.0989
     15 H5         58.5851    7.6632   28.3562 H           1 GPJ       0.2042
     16 H6         57.9937    8.3588   26.9588 H           1 GPJ       0.2042
@<TRIPOS>BOND
     1     1     2  ar
     2     1     3  ar
     3     1     4  ar
     4     7     1   1
     5     9     5  ar
     6     9     6  ar
     7    10     7   1
     8     8     9   1
     9     8    10   1
    10     7    11   1
    11     7    12   1
    12     8    13   1
    13     8    14   1
    14    10    15   1
    15    10    16   1
@<TRIPOS>SUBSTRUCTURE
     1  GPJ      7

