@<TRIPOS>MOLECULE
2qft_ligand_022
    16    15
SMALL
GAST_HUCK
****
This file was generated by PARSER (from files_GN.cpp)

@<TRIPOS>ATOM
      1 P1         59.6877    8.6477   28.4313 P.3         1 GPJ       0.1070
      2 O1         59.1066    9.2149   27.2433 O.co2       1 GPJ      -0.5587
      3 O2         59.5786    7.2120   28.3842 O.co2       1 GPJ      -0.5587
      4 O3         61.0866    8.9853   28.3977 O.co2       1 GPJ      -0.5587
      5 O4         54.7561    9.4223   31.0035 O.co2       1 GPJ      -0.5645
      6 O5         54.4809    8.1702   29.0547 O.co2       1 GPJ      -0.5645
      7 C1         59.0180    9.2660   29.8297 C.3         1 GPJ       0.0369
      8 C2         56.5507    9.4551   29.3226 C.3         1 GPJ       0.0207
      9 C3         55.2437    8.9962   29.8075 C.2         1 GPJ       0.0813
     10 N1         57.6294    8.8225   30.1181 N.4         1 GPJ       0.2507
     11 H1         59.0682   10.3558   29.8061 H           1 GPJ       0.1013
     12 H2         59.6400    8.9263   30.6600 H           1 GPJ       0.1013
     13 H3         56.6068   10.5400   29.4165 H           1 GPJ       0.0989
     14 H4         56.6529    9.1863   28.2688 H           1 GPJ       0.0989
     15 H5         57.4371    9.0332   31.1027 H           1 GPJ       0.2042
     16 H6         57.5789    7.8057   30.0005 H           1 GPJ       0.2042
@<TRIPOS>BOND
     1     1     2  ar
     2     1     3  ar
     3     1     4  ar
     4     7     1   1
     5     9     5  ar
     6     9     6  ar
     7    10     7   1
     8     8     9   1
     9     8    10   1
    10     7    11   1
    11     7    12   1
    12     8    13   1
    13     8    14   1
    14    10    15   1
    15    10    16   1
@<TRIPOS>SUBSTRUCTURE
     1  GPJ      7

