@<TRIPOS>MOLECULE
2qft_ligand_008
    16    15
SMALL
GAST_HUCK
****
This file was generated by PARSER (from files_GN.cpp)

@<TRIPOS>ATOM
      1 P1         60.4027    8.4191   31.4666 P.3         1 GPJ       0.1070
      2 O1         59.8803    8.9560   32.6964 O.co2       1 GPJ      -0.5587
      3 O2         61.0693    9.4756   30.7519 O.co2       1 GPJ      -0.5587
      4 O3         61.3961    7.4528   31.8580 O.co2       1 GPJ      -0.5587
      5 O4         58.8411    8.1378   27.3071 O.co2       1 GPJ      -0.5645
      6 O5         60.0982   10.0558   27.6256 O.co2       1 GPJ      -0.5645
      7 C1         59.2301    7.6550   30.5697 C.3         1 GPJ       0.0369
      8 C2         58.2635    9.6061   29.2052 C.3         1 GPJ       0.0207
      9 C3         59.0723    9.2639   28.0182 C.2         1 GPJ       0.0813
     10 N1         58.0747    8.5039   30.1839 N.4         1 GPJ       0.2507
     11 H1         58.8319    6.8365   31.1725 H           1 GPJ       0.1013
     12 H2         59.6877    7.2076   29.6857 H           1 GPJ       0.1013
     13 H3         57.2739    9.9057   28.8545 H           1 GPJ       0.0989
     14 H4         58.6974   10.4683   29.7171 H           1 GPJ       0.0989
     15 H5         57.6880    8.9048   31.0460 H           1 GPJ       0.2042
     16 H6         57.3683    7.8775   29.7901 H           1 GPJ       0.2042
@<TRIPOS>BOND
     1     1     2  ar
     2     1     3  ar
     3     1     4  ar
     4     7     1   1
     5     9     5  ar
     6     9     6  ar
     7    10     7   1
     8     8     9   1
     9     8    10   1
    10     7    11   1
    11     7    12   1
    12     8    13   1
    13     8    14   1
    14    10    15   1
    15    10    16   1
@<TRIPOS>SUBSTRUCTURE
     1  GPJ      7

