@<TRIPOS>MOLECULE
2qft_ligand_027
    16    15
SMALL
GAST_HUCK
****
This file was generated by PARSER (from files_GN.cpp)

@<TRIPOS>ATOM
      1 P1         58.6060    8.3324   30.3477 P.3         1 GPJ       0.1070
      2 O1         57.2611    8.7935   30.5748 O.co2       1 GPJ      -0.5587
      3 O2         59.4781    8.9718   31.2990 O.co2       1 GPJ      -0.5587
      4 O3         58.6543    6.9081   30.5652 O.co2       1 GPJ      -0.5587
      5 O4         61.2627   10.7130   26.1677 O.co2       1 GPJ      -0.5645
      6 O5         61.8593   10.4386   28.3979 O.co2       1 GPJ      -0.5645
      7 C1         59.0692    8.7110   28.8019 C.3         1 GPJ       0.0369
      8 C2         60.9951    8.4924   27.1900 C.3         1 GPJ       0.0207
      9 C3         61.3310    9.9260   27.2617 C.2         1 GPJ       0.0813
     10 N1         60.3111    7.9997   28.4114 N.4         1 GPJ       0.2507
     11 H1         59.2053    9.7973   28.7532 H           1 GPJ       0.1013
     12 H2         58.2653    8.4405   28.1141 H           1 GPJ       0.1013
     13 H3         61.9167    7.9273   27.0736 H           1 GPJ       0.0989
     14 H4         60.3689    8.3052   26.3125 H           1 GPJ       0.0989
     15 H5         60.0636    7.0187   28.2478 H           1 GPJ       0.2042
     16 H6         60.9850    8.0208   29.1898 H           1 GPJ       0.2042
@<TRIPOS>BOND
     1     1     2  ar
     2     1     3  ar
     3     1     4  ar
     4     7     1   1
     5     9     5  ar
     6     9     6  ar
     7    10     7   1
     8     8     9   1
     9     8    10   1
    10     7    11   1
    11     7    12   1
    12     8    13   1
    13     8    14   1
    14    10    15   1
    15    10    16   1
@<TRIPOS>SUBSTRUCTURE
     1  GPJ      7

