@<TRIPOS>MOLECULE
2qft_ligand_017
    16    15
SMALL
GAST_HUCK
****
This file was generated by PARSER (from files_GN.cpp)

@<TRIPOS>ATOM
      1 P1         57.6253   10.7954   29.4430 P.3         1 GPJ       0.1070
      2 O1         58.7698   10.7276   30.3279 O.co2       1 GPJ      -0.5587
      3 O2         57.6436    9.5997   28.6303 O.co2       1 GPJ      -0.5587
      4 O3         56.4252   10.7322   30.2516 O.co2       1 GPJ      -0.5587
      5 O4         53.5257   13.2730   26.7595 O.co2       1 GPJ      -0.5645
      6 O5         54.8366   11.3873   27.0234 O.co2       1 GPJ      -0.5645
      7 C1         57.6705   12.1485   28.4898 C.3         1 GPJ       0.0369
      8 C2         55.8466   13.5828   27.5086 C.3         1 GPJ       0.0207
      9 C3         54.7242   12.7315   27.0634 C.2         1 GPJ       0.0813
     10 N1         56.5148   13.0531   28.7237 N.4         1 GPJ       0.2507
     11 H1         57.6908   11.8117   27.4569 H           1 GPJ       0.1013
     12 H2         58.5970   12.7015   28.6826 H           1 GPJ       0.1013
     13 H3         55.4504   14.5726   27.7601 H           1 GPJ       0.0989
     14 H4         56.5573   13.7174   26.6848 H           1 GPJ       0.0989
     15 H5         56.8342   13.8493   29.2787 H           1 GPJ       0.2042
     16 H6         55.7997   12.5573   29.2659 H           1 GPJ       0.2042
@<TRIPOS>BOND
     1     1     2  ar
     2     1     3  ar
     3     1     4  ar
     4     7     1   1
     5     9     5  ar
     6     9     6  ar
     7    10     7   1
     8     8     9   1
     9     8    10   1
    10     7    11   1
    11     7    12   1
    12     8    13   1
    13     8    14   1
    14    10    15   1
    15    10    16   1
@<TRIPOS>SUBSTRUCTURE
     1  GPJ      7

