@<TRIPOS>MOLECULE
2qft_ligand_004
    16    15
SMALL
GAST_HUCK
****
This file was generated by PARSER (from files_GN.cpp)

@<TRIPOS>ATOM
      1 P1         57.6249    8.3373   28.5960 P.3         1 GPJ       0.1070
      2 O1         57.1204    7.8821   27.3187 O.co2       1 GPJ      -0.5587
      3 O2         57.8938    9.7463   28.4864 O.co2       1 GPJ      -0.5587
      4 O3         56.5437    8.1917   29.5388 O.co2       1 GPJ      -0.5587
      5 O4         59.8731   10.6790   26.9976 O.co2       1 GPJ      -0.5645
      6 O5         59.4925    8.5737   26.0784 O.co2       1 GPJ      -0.5645
      7 C1         58.9736    7.4568   29.0508 C.3         1 GPJ       0.0369
      8 C2         60.9444    8.7236   28.0371 C.3         1 GPJ       0.0207
      9 C3         60.1247    9.3521   26.9861 C.2         1 GPJ       0.0813
     10 N1         60.1951    8.2802   29.2436 N.4         1 GPJ       0.2507
     11 H1         59.1584    6.6497   28.3254 H           1 GPJ       0.1013
     12 H2         58.7558    6.9763   30.0123 H           1 GPJ       0.1013
     13 H3         61.6832    9.4678   28.3777 H           1 GPJ       0.0989
     14 H4         61.4904    7.8683   27.6212 H           1 GPJ       0.0989
     15 H5         60.8638    7.7022   29.7642 H           1 GPJ       0.2042
     16 H6         59.9579    9.0980   29.8160 H           1 GPJ       0.2042
@<TRIPOS>BOND
     1     1     2  ar
     2     1     3  ar
     3     1     4  ar
     4     7     1   1
     5     9     5  ar
     6     9     6  ar
     7    10     7   1
     8     8     9   1
     9     8    10   1
    10     7    11   1
    11     7    12   1
    12     8    13   1
    13     8    14   1
    14    10    15   1
    15    10    16   1
@<TRIPOS>SUBSTRUCTURE
     1  GPJ      7

