@<TRIPOS>MOLECULE
2qft_ligand_014
    16    15
SMALL
GAST_HUCK
****
This file was generated by PARSER (from files_GN.cpp)

@<TRIPOS>ATOM
      1 P1         53.8174    8.7919   28.1205 P.3         1 GPJ       0.1070
      2 O1         53.6138    8.0958   29.3640 O.co2       1 GPJ      -0.5587
      3 O2         52.6145    8.6254   27.3441 O.co2       1 GPJ      -0.5587
      4 O3         53.9797   10.1975   28.3910 O.co2       1 GPJ      -0.5587
      5 O4         59.9707    8.2789   26.9137 O.co2       1 GPJ      -0.5645
      6 O5         58.7946    9.8014   28.2014 O.co2       1 GPJ      -0.5645
      7 C1         55.1115    8.1378   27.3050 C.3         1 GPJ       0.0369
      8 C2         57.6093    7.7999   27.3447 C.3         1 GPJ       0.0207
      9 C3         58.8152    8.6311   27.5204 C.2         1 GPJ       0.0813
     10 N1         56.4072    8.4015   27.9769 N.4         1 GPJ       0.2507
     11 H1         55.1258    8.5625   26.2978 H           1 GPJ       0.1013
     12 H2         54.9556    7.0600   27.2258 H           1 GPJ       0.1013
     13 H3         57.8000    6.8231   27.7981 H           1 GPJ       0.0989
     14 H4         57.4590    7.6509   26.2705 H           1 GPJ       0.0989
     15 H5         56.3508    8.0547   28.9374 H           1 GPJ       0.2042
     16 H6         56.5428    9.4137   28.0200 H           1 GPJ       0.2042
@<TRIPOS>BOND
     1     1     2  ar
     2     1     3  ar
     3     1     4  ar
     4     7     1   1
     5     9     5  ar
     6     9     6  ar
     7    10     7   1
     8     8     9   1
     9     8    10   1
    10     7    11   1
    11     7    12   1
    12     8    13   1
    13     8    14   1
    14    10    15   1
    15    10    16   1
@<TRIPOS>SUBSTRUCTURE
     1  GPJ      7

