@<TRIPOS>MOLECULE
2qft_ligand_019
    16    15
SMALL
GAST_HUCK
****
This file was generated by PARSER (from files_GN.cpp)

@<TRIPOS>ATOM
      1 P1         59.4961    6.8728   29.3618 P.3         1 GPJ       0.1070
      2 O1         60.5131    6.5015   28.4084 O.co2       1 GPJ      -0.5587
      3 O2         58.2151    6.6967   28.7251 O.co2       1 GPJ      -0.5587
      4 O3         59.5649    5.9678   30.4818 O.co2       1 GPJ      -0.5587
      5 O4         61.0076   10.5632   26.9978 O.co2       1 GPJ      -0.5645
      6 O5         60.5289    8.3509   26.4021 O.co2       1 GPJ      -0.5645
      7 C1         59.7221    8.4354   29.8941 C.3         1 GPJ       0.0369
      8 C2         58.8941    9.5942   27.7520 C.3         1 GPJ       0.0207
      9 C3         60.1965    9.4881   27.0696 C.2         1 GPJ       0.0813
     10 N1         58.8982    9.4763   29.2289 N.4         1 GPJ       0.2507
     11 H1         60.7767    8.6959   29.8057 H           1 GPJ       0.1013
     12 H2         59.4625    8.4738   30.9497 H           1 GPJ       0.1013
     13 H3         58.2198    8.8400   27.3527 H           1 GPJ       0.0989
     14 H4         58.4676   10.5764   27.5131 H           1 GPJ       0.0989
     15 H5         59.1930   10.3768   29.6088 H           1 GPJ       0.2042
     16 H6         57.9265    9.3337   29.5180 H           1 GPJ       0.2042
@<TRIPOS>BOND
     1     1     2  ar
     2     1     3  ar
     3     1     4  ar
     4     7     1   1
     5     9     5  ar
     6     9     6  ar
     7    10     7   1
     8     8     9   1
     9     8    10   1
    10     7    11   1
    11     7    12   1
    12     8    13   1
    13     8    14   1
    14    10    15   1
    15    10    16   1
@<TRIPOS>SUBSTRUCTURE
     1  GPJ      7

