@<TRIPOS>MOLECULE
2qft_ligand_013
    16    15
SMALL
GAST_HUCK
****
This file was generated by PARSER (from files_GN.cpp)

@<TRIPOS>ATOM
      1 P1         52.8939    7.6117   27.5828 P.3         1 GPJ       0.1070
      2 O1         53.0167    8.5172   28.6914 O.co2       1 GPJ      -0.5587
      3 O2         51.5844    7.0381   27.6795 O.co2       1 GPJ      -0.5587
      4 O3         52.9828    8.3822   26.3670 O.co2       1 GPJ      -0.5587
      5 O4         57.0841    3.8367   27.2674 O.co2       1 GPJ      -0.5645
      6 O5         56.4233    4.8592   25.3101 O.co2       1 GPJ      -0.5645
      7 C1         54.0743    6.4476   27.6776 C.3         1 GPJ       0.0369
      8 C2         54.6850    4.1366   26.8833 C.3         1 GPJ       0.0207
      9 C3         56.0968    4.3598   26.5236 C.2         1 GPJ       0.0813
     10 N1         53.8433    5.3475   26.7132 N.4         1 GPJ       0.2507
     11 H1         54.0739    6.0498   28.6924 H           1 GPJ       0.1013
     12 H2         55.0426    6.9033   27.4708 H           1 GPJ       0.1013
     13 H3         54.6204    3.7621   27.9090 H           1 GPJ       0.0989
     14 H4         54.2838    3.3623   26.2236 H           1 GPJ       0.0989
     15 H5         54.0071    5.7101   25.7715 H           1 GPJ       0.2042
     16 H6         52.8700    5.0623   26.7879 H           1 GPJ       0.2042
@<TRIPOS>BOND
     1     1     2  ar
     2     1     3  ar
     3     1     4  ar
     4     7     1   1
     5     9     5  ar
     6     9     6  ar
     7    10     7   1
     8     8     9   1
     9     8    10   1
    10     7    11   1
    11     7    12   1
    12     8    13   1
    13     8    14   1
    14    10    15   1
    15    10    16   1
@<TRIPOS>SUBSTRUCTURE
     1  GPJ      7

