@<TRIPOS>MOLECULE
2qmj_ligand_065
    88    91
SMALL
GAST_HUCK
****
This file was generated by PARSER (from files_GN.cpp)

@<TRIPOS>ATOM
      1 C1A       -19.6285   -5.8800  -10.8764 C.3         1 ACR       0.0141
      2 C2A       -20.8294   -5.5123  -11.7963 C.3         1 ACR       0.1303
      3 C3A       -21.7073   -6.7710  -12.0340 C.3         1 ACR       0.1215
      4 C4A       -20.8507   -7.9580  -12.5837 C.3         1 ACR       0.1112
      5 C5A       -19.4364   -8.0097  -12.1608 C.2         1 ACR      -0.0200
      6 C6A       -18.5753   -9.0891  -12.6466 C.3         1 ACR       0.0719
      7 C7A       -18.8898   -6.9997  -11.4483 C.2         1 ACR      -0.0543
      8 O2A       -21.5568   -4.4159  -11.2496 O.3         1 ACR      -0.3821
      9 O3A       -22.7776   -6.4555  -12.9300 O.3         1 ACR      -0.3843
     10 O4A       -21.5458   -9.1530  -12.2091 O.3         1 ACR      -0.3780
     11 O6A       -18.9903  -10.3698  -12.1830 O.3         1 ACR      -0.3839
     12 C1B       -17.8490   -6.9227   -5.7644 C.3         1 ACR       0.1886
     13 C2B       -17.7328   -5.5183   -6.4156 C.3         1 ACR       0.1370
     14 C3B       -18.9002   -5.2690   -7.4060 C.3         1 ACR       0.1304
     15 C4B       -18.9666   -6.4191   -8.4551 C.3         1 ACR       0.0341
     16 C5B       -19.1410   -7.7721   -7.6862 C.3         1 ACR       0.1038
     17 C6B       -19.1671   -9.0192   -8.6062 C.3         1 ACR      -0.0332
     18 N4B       -20.0474   -6.1741   -9.4672 N.4         1 ACR       0.2433
     19 O2B       -17.6776   -4.5076   -5.4119 O.3         1 ACR      -0.3840
     20 O3B       -18.7214   -4.0269   -8.0803 O.3         1 ACR      -0.3834
     21 O5B       -18.0361   -7.9512   -6.7645 O.3         1 ACR      -0.3401
     22 C1C       -17.3693   -9.2554   -1.5247 C.3         1 ACR       0.1884
     23 C2C       -18.3467   -9.9961   -2.4661 C.3         1 ACR       0.1341
     24 C3C       -18.4784   -9.2455   -3.8150 C.3         1 ACR       0.1144
     25 C4C       -18.8410   -7.7445   -3.5961 C.3         1 ACR       0.1184
     26 C5C       -17.9045   -7.0783   -2.5325 C.3         1 ACR       0.1134
     27 C6C       -18.4393   -5.6956   -2.0796 C.3         1 ACR       0.0730
     28 O2C       -17.9026  -11.3387   -2.6735 O.3         1 ACR      -0.3841
     29 O3C       -19.4902   -9.8881   -4.5950 O.3         1 ACR      -0.3864
     30 O4C       -18.9369   -6.9571   -4.8100 O.3         1 ACR      -0.3401
     31 O5C       -17.7968   -7.8928   -1.3399 O.3         1 ACR      -0.3405
     32 O6C       -17.5279   -5.0572   -1.1961 O.3         1 ACR      -0.3924
     33 C1D       -14.8653   -9.5790    1.6836 C.3         1 ACR       0.1854
     34 C2D       -14.8696   -8.2204    0.9402 C.3         1 ACR       0.1339
     35 C3D       -14.2987   -8.3721   -0.4968 C.3         1 ACR       0.1144
     36 C4D       -14.8344   -9.6052   -1.2860 C.3         1 ACR       0.1184
     37 C5D       -14.9303  -10.8945   -0.3981 C.3         1 ACR       0.1134
     38 C6D       -13.6023  -11.6920   -0.2922 C.3         1 ACR       0.0730
     39 O1D       -15.5460   -9.4838    2.9307 O.3         1 ACR      -0.3649
     40 O2D       -16.1743   -7.6663    0.9014 O.3         1 ACR      -0.3841
     41 O3D       -12.8769   -8.4356   -0.4015 O.3         1 ACR      -0.3864
     42 O4D       -16.0220   -9.3300   -2.0641 O.3         1 ACR      -0.3401
     43 O5D       -15.4940  -10.6220    0.9081 O.3         1 ACR      -0.3407
     44 O6D       -13.7676  -12.8674    0.4941 O.3         1 ACR      -0.3924
     45 H1        -18.9722   -5.0039  -10.8598 H           1 ACR       0.0950
     46 H2        -20.4473   -5.1697  -12.7647 H           1 ACR       0.0694
     47 H3        -22.1616   -7.0520  -11.0787 H           1 ACR       0.0671
     48 H4        -20.8485   -7.8910  -13.6759 H           1 ACR       0.0769
     49 H5        -17.5360   -8.9874  -12.3237 H           1 ACR       0.0706
     50 H6        -18.5646   -9.0794  -13.7393 H           1 ACR       0.0706
     51 H7        -17.9116   -7.0257  -11.2446 H           1 ACR       0.0299
     52 H8        -22.1182   -4.8065  -10.5414 H           1 ACR       0.2103
     53 H9        -23.3203   -7.2675  -12.9816 H           1 ACR       0.2102
     54 H10       -21.3179   -9.8191  -12.9009 H           1 ACR       0.2130
     55 H11       -19.7603  -10.5991  -12.7563 H           1 ACR       0.2125
     56 H12       -16.8952   -7.1287   -5.2759 H           1 ACR       0.0938
     57 H13       -16.7900   -5.4783   -6.9702 H           1 ACR       0.0672
     58 H14       -19.8447   -5.2180   -6.8550 H           1 ACR       0.0679
     59 H15       -17.9863   -6.4542   -8.9415 H           1 ACR       0.0903
     60 H16       -20.0842   -7.7533   -7.1293 H           1 ACR       0.0652
     61 H17       -19.2290   -9.9192   -7.9936 H           1 ACR       0.0257
     62 H18       -18.2615   -9.0732   -9.2115 H           1 ACR       0.0257
     63 H19       -20.0358   -8.9984   -9.2640 H           1 ACR       0.0257
     64 H20       -20.6523   -6.9944   -9.4919 H           1 ACR       0.2029
     65 H21       -20.6206   -5.3964   -9.1298 H           1 ACR       0.2029
     66 H22       -17.4644   -3.6782   -5.8897 H           1 ACR       0.2101
     67 H23       -18.7786   -3.3350   -7.3861 H           1 ACR       0.2102
     68 H24       -17.4178   -9.7304   -0.5454 H           1 ACR       0.0938
     69 H25       -19.3202  -10.0412   -1.9798 H           1 ACR       0.0671
     70 H26       -17.5322   -9.3311   -4.3564 H           1 ACR       0.0648
     71 H27       -19.8501   -7.7391   -3.1787 H           1 ACR       0.0651
     72 H28       -16.9081   -6.9344   -2.9475 H           1 ACR       0.0647
     73 H29       -19.3994   -5.8157   -1.5572 H           1 ACR       0.0584
     74 H30       -18.6038   -5.0419   -2.9344 H           1 ACR       0.0584
     75 H31       -18.6036  -11.7636   -3.1963 H           1 ACR       0.2101
     76 H32       -19.4763   -9.4254   -5.4738 H           1 ACR       0.2100
     77 H33       -16.7075   -4.9240   -1.7217 H           1 ACR       0.2095
     78 H34       -13.8348   -9.8692    1.9204 H           1 ACR       0.0935
     79 H35       -14.2495   -7.5158    1.5012 H           1 ACR       0.0671
     80 H36       -14.5288   -7.4584   -1.0631 H           1 ACR       0.0648
     81 H37       -14.1134   -9.8101   -2.0675 H           1 ACR       0.0651
     82 H38       -15.6344  -11.5755   -0.8890 H           1 ACR       0.0647
     83 H39       -12.8113  -11.0872    0.1466 H           1 ACR       0.0584
     84 H40       -13.2750  -12.0083   -1.2865 H           1 ACR       0.0584
     85 H41       -16.4840   -9.2896    2.7057 H           1 ACR       0.2126
     86 H42       -16.4228   -7.4816    1.8275 H           1 ACR       0.2101
     87 H43       -12.5428   -8.4572   -1.3260 H           1 ACR       0.2100
     88 H44       -13.9980  -12.5449    1.3966 H           1 ACR       0.2095
@<TRIPOS>BOND
     1     1     2   1
     2     1     7   1
     3    18     1   1
     4     2     3   1
     5     2     8   1
     6     3     4   1
     7     3     9   1
     8     5     4   1
     9     4    10   1
    10     5     6   1
    11     7     5   2
    12     6    11   1
    13    12    13   1
    14    12    21   1
    15    30    12   1
    16    13    14   1
    17    13    19   1
    18    14    15   1
    19    14    20   1
    20    16    15   1
    21    15    18   1
    22    16    17   1
    23    21    16   1
    24    22    23   1
    25    22    31   1
    26    42    22   1
    27    23    24   1
    28    23    28   1
    29    24    25   1
    30    24    29   1
    31    26    25   1
    32    25    30   1
    33    26    27   1
    34    31    26   1
    35    27    32   1
    36    34    33   1
    37    33    39   1
    38    33    43   1
    39    35    34   1
    40    34    40   1
    41    36    35   1
    42    35    41   1
    43    36    37   1
    44    36    42   1
    45    37    38   1
    46    37    43   1
    47    38    44   1
    48     1    45   1
    49     2    46   1
    50     3    47   1
    51     4    48   1
    52     6    49   1
    53     6    50   1
    54     7    51   1
    55     8    52   1
    56     9    53   1
    57    10    54   1
    58    11    55   1
    59    12    56   1
    60    13    57   1
    61    14    58   1
    62    15    59   1
    63    16    60   1
    64    17    61   1
    65    17    62   1
    66    17    63   1
    67    18    64   1
    68    18    65   1
    69    19    66   1
    70    20    67   1
    71    22    68   1
    72    23    69   1
    73    24    70   1
    74    25    71   1
    75    26    72   1
    76    27    73   1
    77    27    74   1
    78    28    75   1
    79    29    76   1
    80    32    77   1
    81    33    78   1
    82    34    79   1
    83    35    80   1
    84    36    81   1
    85    37    82   1
    86    38    83   1
    87    38    84   1
    88    39    85   1
    89    40    86   1
    90    41    87   1
    91    44    88   1
@<TRIPOS>SUBSTRUCTURE
     1  ACR      1

