@<TRIPOS>MOLECULE
2qmj_ligand_047
    88    91
SMALL
GAST_HUCK
****
This file was generated by PARSER (from files_GN.cpp)

@<TRIPOS>ATOM
      1 C1A       -20.5548   -7.5013   -9.9396 C.3         1 ACR       0.0141
      2 C2A       -19.4186   -7.1429  -10.9455 C.3         1 ACR       0.1303
      3 C3A       -19.7233   -7.7651  -12.3373 C.3         1 ACR       0.1215
      4 C4A       -21.0908   -7.2351  -12.8637 C.3         1 ACR       0.1112
      5 C5A       -22.1350   -7.0730  -11.8390 C.2         1 ACR      -0.0200
      6 C6A       -23.4801   -6.6924  -12.2731 C.3         1 ACR       0.0719
      7 C7A       -21.8735   -7.2163  -10.5161 C.2         1 ACR      -0.0543
      8 O2A       -19.3473   -5.7267  -11.0714 O.3         1 ACR      -0.3821
      9 O3A       -19.7421   -9.1953  -12.2424 O.3         1 ACR      -0.3843
     10 O4A       -20.8915   -5.9660  -13.4904 O.3         1 ACR      -0.3780
     11 O6A       -23.7656   -5.3243  -12.0008 O.3         1 ACR      -0.3839
     12 C1B       -17.4017   -6.1606   -5.5288 C.3         1 ACR       0.1886
     13 C2B       -17.0738   -5.7295   -6.9802 C.3         1 ACR       0.1370
     14 C3B       -18.3899   -5.5810   -7.7943 C.3         1 ACR       0.1304
     15 C4B       -19.1587   -6.9418   -7.8194 C.3         1 ACR       0.0341
     16 C5B       -19.4117   -7.3616   -6.3270 C.3         1 ACR       0.1038
     17 C6B       -20.0099   -8.7816   -6.1771 C.3         1 ACR      -0.0332
     18 N4B       -20.4373   -6.8380   -8.6010 N.4         1 ACR       0.2433
     19 O2B       -16.2889   -4.5422   -7.0017 O.3         1 ACR      -0.3840
     20 O3B       -18.0834   -5.0767   -9.0767 O.3         1 ACR      -0.3834
     21 O5B       -18.1839   -7.3729   -5.5577 O.3         1 ACR      -0.3401
     22 C1C       -18.3235   -3.0911   -1.0859 C.3         1 ACR       0.1884
     23 C2C       -17.3356   -2.4953   -2.1226 C.3         1 ACR       0.1341
     24 C3C       -17.6048   -3.0620   -3.5478 C.3         1 ACR       0.1144
     25 C4C       -17.6362   -4.6203   -3.5438 C.3         1 ACR       0.1184
     26 C5C       -18.5915   -5.1304   -2.4215 C.3         1 ACR       0.1134
     27 C6C       -18.5677   -6.6735   -2.2280 C.3         1 ACR       0.0730
     28 O2C       -17.3701   -1.0658   -2.0845 O.3         1 ACR      -0.3841
     29 O3C       -16.5877   -2.6146   -4.4423 O.3         1 ACR      -0.3864
     30 O4C       -18.0929   -5.0849   -4.8402 O.3         1 ACR      -0.3401
     31 O5C       -18.2528   -4.5293   -1.1501 O.3         1 ACR      -0.3405
     32 O6C       -19.7929   -7.2733   -2.6321 O.3         1 ACR      -0.3924
     33 C1D       -21.7551   -3.0608    2.4539 C.3         1 ACR       0.1854
     34 C2D       -22.2410   -3.9317    1.2676 C.3         1 ACR       0.1339
     35 C3D       -21.1555   -3.9984    0.1605 C.3         1 ACR       0.1144
     36 C4D       -20.6636   -2.5780   -0.2515 C.3         1 ACR       0.1184
     37 C5D       -20.2855   -1.7390    1.0134 C.3         1 ACR       0.1134
     38 C6D       -19.9964   -0.2578    0.6664 C.3         1 ACR       0.0730
     39 O1D       -20.6986   -3.6918    3.1804 O.3         1 ACR      -0.3649
     40 O2D       -22.5791   -5.2411    1.7236 O.3         1 ACR      -0.3841
     41 O3D       -21.6969   -4.6851   -0.9665 O.3         1 ACR      -0.3864
     42 O4D       -19.6573   -2.5682   -1.2984 O.3         1 ACR      -0.3401
     43 O5D       -21.3549   -1.7568    1.9877 O.3         1 ACR      -0.3407
     44 O6D       -19.6141    0.4732    1.8280 O.3         1 ACR      -0.3924
     45 H1        -20.5268   -8.5801   -9.7568 H           1 ACR       0.0950
     46 H2        -18.4480   -7.5053  -10.5913 H           1 ACR       0.0694
     47 H3        -18.9225   -7.4955  -13.0354 H           1 ACR       0.0671
     48 H4        -21.4504   -7.9216  -13.6350 H           1 ACR       0.0769
     49 H5        -24.2309   -7.3146  -11.7817 H           1 ACR       0.0706
     50 H6        -23.6010   -6.8196  -13.3504 H           1 ACR       0.0706
     51 H7        -22.6386   -7.1626   -9.8815 H           1 ACR       0.0299
     52 H8        -18.7055   -5.5625  -11.7857 H           1 ACR       0.2103
     53 H9        -19.8395   -9.5333  -13.1635 H           1 ACR       0.2102
     54 H10       -20.3446   -6.1380  -14.2877 H           1 ACR       0.2130
     55 H11       -23.4350   -5.1468  -11.0997 H           1 ACR       0.2125
     56 H12       -16.4531   -6.4100   -5.0466 H           1 ACR       0.0938
     57 H13       -16.4653   -6.5143   -7.4440 H           1 ACR       0.0672
     58 H14       -19.0264   -4.8260   -7.3192 H           1 ACR       0.0679
     59 H15       -18.5127   -7.7014   -8.2699 H           1 ACR       0.0903
     60 H16       -20.1103   -6.6516   -5.8676 H           1 ACR       0.0652
     61 H17       -20.1262   -9.0209   -5.1165 H           1 ACR       0.0257
     62 H18       -19.3496   -9.5216   -6.6293 H           1 ACR       0.0257
     63 H19       -20.9908   -8.8448   -6.6498 H           1 ACR       0.0257
     64 H20       -21.1674   -7.2573   -8.0209 H           1 ACR       0.2029
     65 H21       -20.6887   -5.8551   -8.7008 H           1 ACR       0.2029
     66 H22       -16.9087   -3.7940   -6.8931 H           1 ACR       0.2101
     67 H23       -17.4151   -5.6970   -9.4477 H           1 ACR       0.2102
     68 H24       -17.9594   -2.7987   -0.1015 H           1 ACR       0.0938
     69 H25       -16.3252   -2.7898   -1.8224 H           1 ACR       0.0671
     70 H26       -18.5631   -2.6792   -3.9162 H           1 ACR       0.0648
     71 H27       -16.6222   -4.9618   -3.3201 H           1 ACR       0.0651
     72 H28       -19.6110   -4.8353   -2.6873 H           1 ACR       0.0647
     73 H29       -18.4286   -6.9261   -1.1747 H           1 ACR       0.0584
     74 H30       -17.7491   -7.1275   -2.7892 H           1 ACR       0.0584
     75 H31       -17.8553   -0.7684   -2.8810 H           1 ACR       0.2101
     76 H32       -16.6506   -1.6365   -4.4386 H           1 ACR       0.2100
     77 H33       -19.8670   -7.0838   -3.5876 H           1 ACR       0.2095
     78 H34       -22.5865   -2.9159    3.1464 H           1 ACR       0.0935
     79 H35       -23.1464   -3.4765    0.8556 H           1 ACR       0.0671
     80 H36       -20.3114   -4.5789    0.5384 H           1 ACR       0.0648
     81 H37       -21.5263   -2.0804   -0.7065 H           1 ACR       0.0651
     82 H38       -19.3900   -2.1544    1.4807 H           1 ACR       0.0647
     83 H39       -20.8900    0.2088    0.2466 H           1 ACR       0.0584
     84 H40       -19.1875   -0.1872   -0.0636 H           1 ACR       0.0584
     85 H41       -21.0906   -4.5119    3.5492 H           1 ACR       0.2126
     86 H42       -22.9841   -5.6882    0.9501 H           1 ACR       0.2101
     87 H43       -22.4554   -4.1388   -1.2640 H           1 ACR       0.2100
     88 H44       -18.7388    0.1113    2.0810 H           1 ACR       0.2095
@<TRIPOS>BOND
     1     1     2   1
     2     1     7   1
     3    18     1   1
     4     2     3   1
     5     2     8   1
     6     3     4   1
     7     3     9   1
     8     5     4   1
     9     4    10   1
    10     5     6   1
    11     7     5   2
    12     6    11   1
    13    12    13   1
    14    12    21   1
    15    30    12   1
    16    13    14   1
    17    13    19   1
    18    14    15   1
    19    14    20   1
    20    16    15   1
    21    15    18   1
    22    16    17   1
    23    21    16   1
    24    22    23   1
    25    22    31   1
    26    42    22   1
    27    23    24   1
    28    23    28   1
    29    24    25   1
    30    24    29   1
    31    26    25   1
    32    25    30   1
    33    26    27   1
    34    31    26   1
    35    27    32   1
    36    34    33   1
    37    33    39   1
    38    33    43   1
    39    35    34   1
    40    34    40   1
    41    36    35   1
    42    35    41   1
    43    36    37   1
    44    36    42   1
    45    37    38   1
    46    37    43   1
    47    38    44   1
    48     1    45   1
    49     2    46   1
    50     3    47   1
    51     4    48   1
    52     6    49   1
    53     6    50   1
    54     7    51   1
    55     8    52   1
    56     9    53   1
    57    10    54   1
    58    11    55   1
    59    12    56   1
    60    13    57   1
    61    14    58   1
    62    15    59   1
    63    16    60   1
    64    17    61   1
    65    17    62   1
    66    17    63   1
    67    18    64   1
    68    18    65   1
    69    19    66   1
    70    20    67   1
    71    22    68   1
    72    23    69   1
    73    24    70   1
    74    25    71   1
    75    26    72   1
    76    27    73   1
    77    27    74   1
    78    28    75   1
    79    29    76   1
    80    32    77   1
    81    33    78   1
    82    34    79   1
    83    35    80   1
    84    36    81   1
    85    37    82   1
    86    38    83   1
    87    38    84   1
    88    39    85   1
    89    40    86   1
    90    41    87   1
    91    44    88   1
@<TRIPOS>SUBSTRUCTURE
     1  ACR      1

