@<TRIPOS>MOLECULE
2qmj_ligand_075
    88    91
SMALL
GAST_HUCK
****
This file was generated by PARSER (from files_GN.cpp)

@<TRIPOS>ATOM
      1 C1A       -19.7064   -6.3126  -10.4972 C.3         1 ACR       0.0141
      2 C2A       -20.7100   -5.8492  -11.6006 C.3         1 ACR       0.1303
      3 C3A       -21.7138   -6.9874  -11.9260 C.3         1 ACR       0.1215
      4 C4A       -20.9628   -8.3006  -12.3141 C.3         1 ACR       0.1112
      5 C5A       -19.6631   -8.5273  -11.6495 C.2         1 ACR      -0.0200
      6 C6A       -18.9276   -9.7726  -11.8908 C.3         1 ACR       0.0719
      7 C7A       -19.0756   -7.5746  -10.8820 C.2         1 ACR      -0.0543
      8 O2A       -21.3781   -4.6399  -11.2266 O.3         1 ACR      -0.3821
      9 O3A       -22.5847   -6.5845  -12.9831 O.3         1 ACR      -0.3843
     10 O4A       -21.8538   -9.3970  -12.0747 O.3         1 ACR      -0.3780
     11 O6A       -17.7519   -9.5300  -12.6604 O.3         1 ACR      -0.3839
     12 C1B       -18.8770   -8.5018   -5.6789 C.3         1 ACR       0.1886
     13 C2B       -20.3202   -7.9531   -5.6458 C.3         1 ACR       0.1370
     14 C3B       -20.7804   -7.5855   -7.0745 C.3         1 ACR       0.1304
     15 C4B       -19.8007   -6.6170   -7.8156 C.3         1 ACR       0.0341
     16 C5B       -18.3083   -7.0930   -7.6185 C.3         1 ACR       0.1038
     17 C6B       -17.2634   -5.9749   -7.8917 C.3         1 ACR      -0.0332
     18 N4B       -20.4038   -6.4499   -9.1835 N.4         1 ACR       0.2433
     19 O2B       -21.2110   -8.8843   -5.0356 O.3         1 ACR      -0.3840
     20 O3B       -22.0875   -7.0105   -6.9925 O.3         1 ACR      -0.3834
     21 O5B       -18.0353   -7.4820   -6.2437 O.3         1 ACR      -0.3401
     22 C1C       -18.4832  -12.9127   -3.5800 C.3         1 ACR       0.1884
     23 C2C       -17.1373  -12.5349   -4.2543 C.3         1 ACR       0.1341
     24 C3C       -17.2517  -11.1276   -4.8903 C.3         1 ACR       0.1144
     25 C4C       -18.4729  -11.0328   -5.8602 C.3         1 ACR       0.1184
     26 C5C       -19.7734  -11.6451   -5.2440 C.3         1 ACR       0.1134
     27 C6C       -20.8678  -11.9596   -6.3015 C.3         1 ACR       0.0730
     28 O2C       -16.0692  -12.5685   -3.3086 O.3         1 ACR      -0.3841
     29 O3C       -16.0442  -10.8074   -5.5820 O.3         1 ACR      -0.3864
     30 O4C       -18.6975   -9.7249   -6.4423 O.3         1 ACR      -0.3401
     31 O5C       -19.5160  -12.9095   -4.5821 O.3         1 ACR      -0.3405
     32 O6C       -21.2471  -10.8396   -7.0982 O.3         1 ACR      -0.3924
     33 C1D       -20.7511  -11.4393    0.5065 C.3         1 ACR       0.1854
     34 C2D       -19.9360  -10.3279   -0.2088 C.3         1 ACR       0.1339
     35 C3D       -18.4843  -10.8097   -0.4887 C.3         1 ACR       0.1144
     36 C4D       -18.4503  -12.2075   -1.1745 C.3         1 ACR       0.1184
     37 C5D       -19.4131  -13.2404   -0.5000 C.3         1 ACR       0.1134
     38 C6D       -18.8306  -13.9687    0.7439 C.3         1 ACR       0.0730
     39 O1D       -22.1165  -11.0528    0.6517 O.3         1 ACR      -0.3649
     40 O2D       -20.5849   -9.9702   -1.4317 O.3         1 ACR      -0.3841
     41 O3D       -17.7008  -10.7842    0.7036 O.3         1 ACR      -0.3864
     42 O4D       -18.8765  -11.9970   -2.5341 O.3         1 ACR      -0.3401
     43 O5D       -20.7166  -12.6755   -0.2353 O.3         1 ACR      -0.3407
     44 O6D       -17.4430  -14.2620    0.5746 O.3         1 ACR      -0.3924
     45 H1        -18.9582   -5.5200  -10.4228 H           1 ACR       0.0950
     46 H2        -20.1431   -5.6159  -12.5058 H           1 ACR       0.0694
     47 H3        -22.3331   -7.1671  -11.0438 H           1 ACR       0.0671
     48 H4        -20.7562   -8.2636  -13.3895 H           1 ACR       0.0769
     49 H5        -19.5252  -10.5131  -12.4230 H           1 ACR       0.0706
     50 H6        -18.6401  -10.2204  -10.9372 H           1 ACR       0.0706
     51 H7        -18.1488   -7.7183  -10.5432 H           1 ACR       0.0299
     52 H8        -22.2358   -4.9178  -10.8557 H           1 ACR       0.2103
     53 H9        -23.1452   -7.3689  -13.1679 H           1 ACR       0.2102
     54 H10       -21.7507   -9.9846  -12.8551 H           1 ACR       0.2130
     55 H11       -18.0640   -9.5206  -13.5900 H           1 ACR       0.2125
     56 H12       -18.5572   -8.6029   -4.6454 H           1 ACR       0.0938
     57 H13       -20.3259   -7.0489   -5.0294 H           1 ACR       0.0672
     58 H14       -20.8626   -8.5098   -7.6563 H           1 ACR       0.0679
     59 H15       -19.8872   -5.6423   -7.3219 H           1 ACR       0.0903
     60 H16       -18.1132   -7.9474   -8.2719 H           1 ACR       0.0652
     61 H17       -16.2510   -6.3762   -7.7689 H           1 ACR       0.0257
     62 H18       -17.3918   -5.1504   -7.1794 H           1 ACR       0.0257
     63 H19       -17.3468   -5.5786   -8.9036 H           1 ACR       0.0257
     64 H20       -21.0524   -7.2354   -9.3141 H           1 ACR       0.2029
     65 H21       -20.9926   -5.6161   -9.0862 H           1 ACR       0.2029
     66 H22       -22.0838   -8.4280   -5.0076 H           1 ACR       0.2101
     67 H23       -21.9884   -6.2400   -6.3945 H           1 ACR       0.2102
     68 H24       -18.4157  -13.9348   -3.2009 H           1 ACR       0.0938
     69 H25       -16.9137  -13.2693   -5.0334 H           1 ACR       0.0671
     70 H26       -17.3492  -10.4201   -4.0659 H           1 ACR       0.0648
     71 H27       -18.2200  -11.6667   -6.7115 H           1 ACR       0.0651
     72 H28       -20.1902  -10.9487   -4.5132 H           1 ACR       0.0647
     73 H29       -21.7658  -12.3358   -5.7998 H           1 ACR       0.0584
     74 H30       -20.5066  -12.7365   -6.9779 H           1 ACR       0.0584
     75 H31       -15.2468  -12.4659   -3.8364 H           1 ACR       0.2101
     76 H32       -16.0365   -9.8291   -5.6487 H           1 ACR       0.2100
     77 H33       -21.7903  -10.2748   -6.5050 H           1 ACR       0.2095
     78 H34       -20.3650  -11.5957    1.5151 H           1 ACR       0.0935
     79 H35       -19.9114   -9.4358    0.4252 H           1 ACR       0.0671
     80 H36       -18.0037  -10.0883   -1.1537 H           1 ACR       0.0648
     81 H37       -17.4234  -12.5771   -1.1530 H           1 ACR       0.0651
     82 H38       -19.6041  -14.0360   -1.2230 H           1 ACR       0.0647
     83 H39       -19.3637  -14.9144    0.8991 H           1 ACR       0.0584
     84 H40       -18.9402  -13.3689    1.6471 H           1 ACR       0.0584
     85 H41       -22.5194  -11.1790   -0.2369 H           1 ACR       0.2126
     86 H42       -20.1074   -9.1754   -1.7540 H           1 ACR       0.2101
     87 H43       -18.1246  -11.4063    1.3265 H           1 ACR       0.2100
     88 H44       -17.4071  -14.9208   -0.1530 H           1 ACR       0.2095
@<TRIPOS>BOND
     1     1     2   1
     2     1     7   1
     3    18     1   1
     4     2     3   1
     5     2     8   1
     6     3     4   1
     7     3     9   1
     8     5     4   1
     9     4    10   1
    10     5     6   1
    11     7     5   2
    12     6    11   1
    13    12    13   1
    14    12    21   1
    15    30    12   1
    16    13    14   1
    17    13    19   1
    18    14    15   1
    19    14    20   1
    20    16    15   1
    21    15    18   1
    22    16    17   1
    23    21    16   1
    24    22    23   1
    25    22    31   1
    26    42    22   1
    27    23    24   1
    28    23    28   1
    29    24    25   1
    30    24    29   1
    31    26    25   1
    32    25    30   1
    33    26    27   1
    34    31    26   1
    35    27    32   1
    36    34    33   1
    37    33    39   1
    38    33    43   1
    39    35    34   1
    40    34    40   1
    41    36    35   1
    42    35    41   1
    43    36    37   1
    44    36    42   1
    45    37    38   1
    46    37    43   1
    47    38    44   1
    48     1    45   1
    49     2    46   1
    50     3    47   1
    51     4    48   1
    52     6    49   1
    53     6    50   1
    54     7    51   1
    55     8    52   1
    56     9    53   1
    57    10    54   1
    58    11    55   1
    59    12    56   1
    60    13    57   1
    61    14    58   1
    62    15    59   1
    63    16    60   1
    64    17    61   1
    65    17    62   1
    66    17    63   1
    67    18    64   1
    68    18    65   1
    69    19    66   1
    70    20    67   1
    71    22    68   1
    72    23    69   1
    73    24    70   1
    74    25    71   1
    75    26    72   1
    76    27    73   1
    77    27    74   1
    78    28    75   1
    79    29    76   1
    80    32    77   1
    81    33    78   1
    82    34    79   1
    83    35    80   1
    84    36    81   1
    85    37    82   1
    86    38    83   1
    87    38    84   1
    88    39    85   1
    89    40    86   1
    90    41    87   1
    91    44    88   1
@<TRIPOS>SUBSTRUCTURE
     1  ACR      1

