@<TRIPOS>MOLECULE
2qmj_ligand_079
    88    91
SMALL
GAST_HUCK
****
This file was generated by PARSER (from files_GN.cpp)

@<TRIPOS>ATOM
      1 C1A       -20.4707   -7.5653  -10.1355 C.3         1 ACR       0.0141
      2 C2A       -19.3413   -7.1422  -11.1277 C.3         1 ACR       0.1303
      3 C3A       -19.6543   -7.6858  -12.5460 C.3         1 ACR       0.1215
      4 C4A       -21.0486   -7.1852  -13.0331 C.3         1 ACR       0.1112
      5 C5A       -22.0848   -7.0960  -11.9944 C.2         1 ACR      -0.0200
      6 C6A       -23.4512   -6.7459  -12.3957 C.3         1 ACR       0.0719
      7 C7A       -21.7982   -7.2664  -10.6828 C.2         1 ACR      -0.0543
      8 O2A       -19.2214   -5.7186  -11.1197 O.3         1 ACR      -0.3821
      9 O3A       -19.6127   -9.1151  -12.4982 O.3         1 ACR      -0.3843
     10 O4A       -20.9013   -5.8869  -13.6128 O.3         1 ACR      -0.3780
     11 O6A       -23.7774   -5.4035  -12.0501 O.3         1 ACR      -0.3839
     12 C1B       -17.6099   -6.9195   -5.4239 C.3         1 ACR       0.1886
     13 C2B       -17.5369   -5.7430   -6.4413 C.3         1 ACR       0.1370
     14 C3B       -18.8260   -5.6930   -7.3056 C.3         1 ACR       0.1304
     15 C4B       -19.0950   -7.0620   -7.9922 C.3         1 ACR       0.0341
     16 C5B       -19.0959   -8.1921   -6.9095 C.3         1 ACR       0.1038
     17 C6B       -19.1963   -9.6175   -7.5023 C.3         1 ACR      -0.0332
     18 N4B       -20.3690   -6.9617   -8.7704 N.4         1 ACR       0.2433
     19 O2B       -17.3054   -4.4989   -5.7862 O.3         1 ACR      -0.3840
     20 O3B       -18.7063   -4.6635   -8.2881 O.3         1 ACR      -0.3834
     21 O5B       -17.8690   -8.1456   -6.1403 O.3         1 ACR      -0.3401
     22 C1C       -20.9389   -6.1113   -1.7616 C.3         1 ACR       0.1884
     23 C2C       -21.0053   -5.4224   -3.1457 C.3         1 ACR       0.1341
     24 C3C       -19.6251   -4.7931   -3.4901 C.3         1 ACR       0.1144
     25 C4C       -18.4666   -5.8248   -3.3395 C.3         1 ACR       0.1184
     26 C5C       -18.5254   -6.5827   -1.9751 C.3         1 ACR       0.1134
     27 C6C       -17.9236   -5.8065   -0.7705 C.3         1 ACR       0.0730
     28 O2C       -21.4028   -6.3611   -4.1433 O.3         1 ACR      -0.3841
     29 O3C       -19.3928   -3.6418   -2.6786 O.3         1 ACR      -0.3864
     30 O4C       -18.6155   -6.7970   -4.3975 O.3         1 ACR      -0.3401
     31 O5C       -19.8597   -7.0692   -1.7028 O.3         1 ACR      -0.3405
     32 O6C       -17.9837   -6.6037    0.4089 O.3         1 ACR      -0.3924
     33 C1D       -23.0008   -5.4574    2.4313 C.3         1 ACR       0.1854
     34 C2D       -22.3624   -6.8678    2.3860 C.3         1 ACR       0.1339
     35 C3D       -21.7353   -7.1215    0.9930 C.3         1 ACR       0.1144
     36 C4D       -22.7427   -6.8186   -0.1691 C.3         1 ACR       0.1184
     37 C5D       -23.5504   -5.4940    0.0459 C.3         1 ACR       0.1134
     38 C6D       -24.8213   -5.4201   -0.8442 C.3         1 ACR       0.0730
     39 O1D       -22.0180   -4.4269    2.3141 O.3         1 ACR      -0.3649
     40 O2D       -21.3648   -6.9915    3.3983 O.3         1 ACR      -0.3841
     41 O3D       -21.2607   -8.4671    0.8962 O.3         1 ACR      -0.3864
     42 O4D       -22.1527   -6.8486   -1.4940 O.3         1 ACR      -0.3401
     43 O5D       -24.0103   -5.3512    1.4078 O.3         1 ACR      -0.3407
     44 O6D       -24.5138   -5.4984   -2.2322 O.3         1 ACR      -0.3924
     45 H1        -20.4233   -8.6490  -10.0133 H           1 ACR       0.0950
     46 H2        -18.3800   -7.5635  -10.8265 H           1 ACR       0.0694
     47 H3        -18.8726   -7.3647  -13.2400 H           1 ACR       0.0671
     48 H4        -21.3902   -7.8642  -13.8203 H           1 ACR       0.0769
     49 H5        -24.1736   -7.4120  -11.9189 H           1 ACR       0.0706
     50 H6        -23.5904   -6.8308  -13.4765 H           1 ACR       0.0706
     51 H7        -22.5510   -7.2307  -10.0339 H           1 ACR       0.0299
     52 H8        -18.5423   -5.5066  -11.7890 H           1 ACR       0.2103
     53 H9        -19.7559   -9.4396  -13.4123 H           1 ACR       0.2102
     54 H10       -20.2564   -5.9968  -14.3439 H           1 ACR       0.2130
     55 H11       -23.6550   -5.3401  -11.0829 H           1 ACR       0.2125
     56 H12       -16.6335   -7.0378   -4.9460 H           1 ACR       0.0938
     57 H13       -16.6793   -5.9147   -7.1000 H           1 ACR       0.0672
     58 H14       -19.6812   -5.4407   -6.6716 H           1 ACR       0.0679
     59 H15       -18.2440   -7.2487   -8.6458 H           1 ACR       0.0903
     60 H16       -19.9521   -8.0564   -6.2399 H           1 ACR       0.0652
     61 H17       -19.0487  -10.3587   -6.7146 H           1 ACR       0.0257
     62 H18       -18.4338   -9.7700   -8.2687 H           1 ACR       0.0257
     63 H19       -20.1817   -9.7820   -7.9378 H           1 ACR       0.0257
     64 H20       -21.1066   -7.3845   -8.1988 H           1 ACR       0.2029
     65 H21       -20.6121   -5.9698   -8.8544 H           1 ACR       0.2029
     66 H22       -17.2611   -3.8236   -6.4945 H           1 ACR       0.2101
     67 H23       -17.9252   -4.8974   -8.8315 H           1 ACR       0.2102
     68 H24       -20.7863   -5.3185   -1.0240 H           1 ACR       0.0938
     69 H25       -21.7591   -4.6323   -3.1147 H           1 ACR       0.0671
     70 H26       -19.6605   -4.4314   -4.5197 H           1 ACR       0.0648
     71 H27       -17.5043   -5.3047   -3.4044 H           1 ACR       0.0651
     72 H28       -17.9051   -7.4767   -2.0833 H           1 ACR       0.0647
     73 H29       -18.4614   -4.8764   -0.5860 H           1 ACR       0.0584
     74 H30       -16.8767   -5.5649   -0.9691 H           1 ACR       0.0584
     75 H31       -21.4668   -5.8384   -4.9711 H           1 ACR       0.2101
     76 H32       -18.5414   -3.2713   -2.9957 H           1 ACR       0.2100
     77 H33       -17.5700   -6.0561    1.1096 H           1 ACR       0.2095
     78 H34       -23.5008   -5.3300    3.3938 H           1 ACR       0.0935
     79 H35       -23.1406   -7.6142    2.5744 H           1 ACR       0.0671
     80 H36       -20.8603   -6.4744    0.9144 H           1 ACR       0.0648
     81 H37       -23.4711   -7.6350   -0.1593 H           1 ACR       0.0651
     82 H38       -22.9222   -4.6353   -0.1971 H           1 ACR       0.0647
     83 H39       -25.3422   -4.4744   -0.6654 H           1 ACR       0.0584
     84 H40       -25.5019   -6.2367   -0.5915 H           1 ACR       0.0584
     85 H41       -22.5239   -3.5869    2.3035 H           1 ACR       0.2126
     86 H42       -21.8364   -6.8383    4.2459 H           1 ACR       0.2101
     87 H43       -22.0497   -9.0403    0.9967 H           1 ACR       0.2100
     88 H44       -25.3842   -5.5043   -2.6860 H           1 ACR       0.2095
@<TRIPOS>BOND
     1     1     2   1
     2     1     7   1
     3    18     1   1
     4     2     3   1
     5     2     8   1
     6     3     4   1
     7     3     9   1
     8     5     4   1
     9     4    10   1
    10     5     6   1
    11     7     5   2
    12     6    11   1
    13    12    13   1
    14    12    21   1
    15    30    12   1
    16    13    14   1
    17    13    19   1
    18    14    15   1
    19    14    20   1
    20    16    15   1
    21    15    18   1
    22    16    17   1
    23    21    16   1
    24    22    23   1
    25    22    31   1
    26    42    22   1
    27    23    24   1
    28    23    28   1
    29    24    25   1
    30    24    29   1
    31    26    25   1
    32    25    30   1
    33    26    27   1
    34    31    26   1
    35    27    32   1
    36    34    33   1
    37    33    39   1
    38    33    43   1
    39    35    34   1
    40    34    40   1
    41    36    35   1
    42    35    41   1
    43    36    37   1
    44    36    42   1
    45    37    38   1
    46    37    43   1
    47    38    44   1
    48     1    45   1
    49     2    46   1
    50     3    47   1
    51     4    48   1
    52     6    49   1
    53     6    50   1
    54     7    51   1
    55     8    52   1
    56     9    53   1
    57    10    54   1
    58    11    55   1
    59    12    56   1
    60    13    57   1
    61    14    58   1
    62    15    59   1
    63    16    60   1
    64    17    61   1
    65    17    62   1
    66    17    63   1
    67    18    64   1
    68    18    65   1
    69    19    66   1
    70    20    67   1
    71    22    68   1
    72    23    69   1
    73    24    70   1
    74    25    71   1
    75    26    72   1
    76    27    73   1
    77    27    74   1
    78    28    75   1
    79    29    76   1
    80    32    77   1
    81    33    78   1
    82    34    79   1
    83    35    80   1
    84    36    81   1
    85    37    82   1
    86    38    83   1
    87    38    84   1
    88    39    85   1
    89    40    86   1
    90    41    87   1
    91    44    88   1
@<TRIPOS>SUBSTRUCTURE
     1  ACR      1

