@<TRIPOS>MOLECULE
2qmj_ligand_072
    88    91
SMALL
GAST_HUCK
****
This file was generated by PARSER (from files_GN.cpp)

@<TRIPOS>ATOM
      1 C1A       -20.5237   -7.7505  -10.0742 C.3         1 ACR       0.0141
      2 C2A       -19.4940   -8.2175  -11.1615 C.3         1 ACR       0.1303
      3 C3A       -19.4584   -7.2148  -12.3403 C.3         1 ACR       0.1215
      4 C4A       -20.8726   -7.0798  -12.9691 C.3         1 ACR       0.1112
      5 C5A       -21.9691   -6.9942  -11.9912 C.2         1 ACR      -0.0200
      6 C6A       -23.3319   -6.7540  -12.4791 C.3         1 ACR       0.0719
      7 C7A       -21.7695   -7.2638  -10.6774 C.2         1 ACR      -0.0543
      8 O2A       -18.1754   -8.4663  -10.6787 O.3         1 ACR      -0.3821
      9 O3A       -18.5066   -7.6560  -13.3108 O.3         1 ACR      -0.3843
     10 O4A       -20.8650   -5.9457  -13.8391 O.3         1 ACR      -0.3780
     11 O6A       -23.8299   -5.4875  -12.0736 O.3         1 ACR      -0.3839
     12 C1B       -17.4185   -6.9651   -5.5611 C.3         1 ACR       0.1886
     13 C2B       -17.5878   -5.6132   -6.3138 C.3         1 ACR       0.1370
     14 C3B       -18.8278   -5.5963   -7.2605 C.3         1 ACR       0.1304
     15 C4B       -18.8964   -6.8678   -8.1771 C.3         1 ACR       0.0341
     16 C5B       -18.8060   -8.1224   -7.2313 C.3         1 ACR       0.1038
     17 C6B       -18.7943   -9.5437   -7.8672 C.3         1 ACR      -0.0332
     18 N4B       -20.0846   -6.7244   -9.0756 N.4         1 ACR       0.2433
     19 O2B       -17.6408   -4.5396   -5.3759 O.3         1 ACR      -0.3840
     20 O3B       -18.7957   -4.4151   -8.0701 O.3         1 ACR      -0.3834
     21 O5B       -17.5673   -8.0542   -6.4883 O.3         1 ACR      -0.3401
     22 C1C       -17.4598  -11.0909   -2.9631 C.3         1 ACR       0.1884
     23 C2C       -18.9435  -10.7493   -3.2545 C.3         1 ACR       0.1341
     24 C3C       -19.0386   -9.4678   -4.1246 C.3         1 ACR       0.1144
     25 C4C       -18.2373   -8.2696   -3.5320 C.3         1 ACR       0.1184
     26 C5C       -16.8243   -8.7193   -3.0199 C.3         1 ACR       0.1134
     27 C6C       -16.1703   -7.6527   -2.1058 C.3         1 ACR       0.0730
     28 O2C       -19.6166  -11.8393   -3.8883 O.3         1 ACR      -0.3841
     29 O3C       -20.4093   -9.1052   -4.3071 O.3         1 ACR      -0.3864
     30 O4C       -18.2749   -7.0889   -4.3922 O.3         1 ACR      -0.3401
     31 O5C       -16.8895   -9.9618   -2.2742 O.3         1 ACR      -0.3405
     32 O6C       -14.8738   -8.0674   -1.7014 O.3         1 ACR      -0.3924
     33 C1D       -13.5970  -13.2241   -4.7146 C.3         1 ACR       0.1854
     34 C2D       -14.1556  -12.1394   -5.6774 C.3         1 ACR       0.1339
     35 C3D       -15.6397  -12.4376   -6.0245 C.3         1 ACR       0.1144
     36 C4D       -16.5041  -12.6608   -4.7416 C.3         1 ACR       0.1184
     37 C5D       -15.8270  -13.6946   -3.7795 C.3         1 ACR       0.1134
     38 C6D       -16.0325  -15.1826   -4.1909 C.3         1 ACR       0.0730
     39 O1D       -12.2871  -12.8788   -4.2708 O.3         1 ACR      -0.3649
     40 O2D       -14.0001  -10.8386   -5.1033 O.3         1 ACR      -0.3841
     41 O3D       -15.6769  -13.5572   -6.9134 O.3         1 ACR      -0.3864
     42 O4D       -16.6357  -11.3615   -4.1230 O.3         1 ACR      -0.3401
     43 O5D       -14.4330  -13.3711   -3.5462 O.3         1 ACR      -0.3407
     44 O6D       -15.4616  -16.0619   -3.2265 O.3         1 ACR      -0.3924
     45 H1        -20.8140   -8.6406   -9.5181 H           1 ACR       0.0950
     46 H2        -19.8399   -9.1803  -11.5521 H           1 ACR       0.0694
     47 H3        -19.1313   -6.2490  -11.9454 H           1 ACR       0.0671
     48 H4        -21.0562   -7.9616  -13.5960 H           1 ACR       0.0769
     49 H5        -24.0069   -7.5229  -12.1004 H           1 ACR       0.0706
     50 H6        -23.3866   -6.7817  -13.5713 H           1 ACR       0.0706
     51 H7        -22.5465   -7.1684  -10.0624 H           1 ACR       0.0299
     52 H8        -17.6647   -7.6321  -10.8643 H           1 ACR       0.2103
     53 H9        -18.1486   -6.8228  -13.6872 H           1 ACR       0.2102
     54 H10       -20.8112   -5.1610  -13.2499 H           1 ACR       0.2130
     55 H11       -23.7983   -5.4960  -11.0993 H           1 ACR       0.2125
     56 H12       -16.3790   -6.9843   -5.2296 H           1 ACR       0.0938
     57 H13       -16.6954   -5.4676   -6.9340 H           1 ACR       0.0672
     58 H14       -19.7328   -5.5503   -6.6540 H           1 ACR       0.0679
     59 H15       -17.9937   -6.8474   -8.7973 H           1 ACR       0.0903
     60 H16       -19.6512   -8.0833   -6.5311 H           1 ACR       0.0652
     61 H17       -18.2529  -10.2563   -7.2293 H           1 ACR       0.0257
     62 H18       -18.3013   -9.5399   -8.8534 H           1 ACR       0.0257
     63 H19       -19.8146   -9.9209   -7.9675 H           1 ACR       0.0257
     64 H20       -20.8873   -6.5606   -8.4613 H           1 ACR       0.2029
     65 H21       -19.9400   -5.8603   -9.6047 H           1 ACR       0.2029
     66 H22       -17.3858   -3.7302   -5.8801 H           1 ACR       0.2101
     67 H23       -18.5562   -3.6677   -7.4771 H           1 ACR       0.2102
     68 H24       -17.4348  -11.9379   -2.2802 H           1 ACR       0.0938
     69 H25       -19.4504  -10.5636   -2.3023 H           1 ACR       0.0671
     70 H26       -18.6237   -9.7187   -5.0946 H           1 ACR       0.0648
     71 H27       -18.7958   -7.9666   -2.6386 H           1 ACR       0.0651
     72 H28       -16.1617   -8.8762   -3.8716 H           1 ACR       0.0647
     73 H29       -16.7824   -7.4981   -1.2170 H           1 ACR       0.0584
     74 H30       -16.0809   -6.7062   -2.6408 H           1 ACR       0.0584
     75 H31       -20.5544  -11.5595   -3.9536 H           1 ACR       0.2101
     76 H32       -20.7595   -8.9289   -3.4066 H           1 ACR       0.2100
     77 H33       -14.5446   -7.3541   -1.1180 H           1 ACR       0.2095
     78 H34       -13.5172  -14.1841   -5.2378 H           1 ACR       0.0935
     79 H35       -13.5590  -12.1448   -6.5937 H           1 ACR       0.0671
     80 H36       -16.0471  -11.5874   -6.5797 H           1 ACR       0.0648
     81 H37       -17.4826  -13.0237   -5.0474 H           1 ACR       0.0651
     82 H38       -16.3048  -13.6041   -2.8023 H           1 ACR       0.0647
     83 H39       -15.5724  -15.3966   -5.1527 H           1 ACR       0.0584
     84 H40       -17.1007  -15.4015   -4.2688 H           1 ACR       0.0584
     85 H41       -11.7326  -12.8906   -5.0822 H           1 ACR       0.2126
     86 H42       -14.4996  -10.8600   -4.2594 H           1 ACR       0.2101
     87 H43       -16.5297  -14.0172   -6.7500 H           1 ACR       0.2100
     88 H44       -15.9874  -15.9270   -2.4103 H           1 ACR       0.2095
@<TRIPOS>BOND
     1     1     2   1
     2     1     7   1
     3    18     1   1
     4     2     3   1
     5     2     8   1
     6     3     4   1
     7     3     9   1
     8     5     4   1
     9     4    10   1
    10     5     6   1
    11     7     5   2
    12     6    11   1
    13    12    13   1
    14    12    21   1
    15    30    12   1
    16    13    14   1
    17    13    19   1
    18    14    15   1
    19    14    20   1
    20    16    15   1
    21    15    18   1
    22    16    17   1
    23    21    16   1
    24    22    23   1
    25    22    31   1
    26    42    22   1
    27    23    24   1
    28    23    28   1
    29    24    25   1
    30    24    29   1
    31    26    25   1
    32    25    30   1
    33    26    27   1
    34    31    26   1
    35    27    32   1
    36    34    33   1
    37    33    39   1
    38    33    43   1
    39    35    34   1
    40    34    40   1
    41    36    35   1
    42    35    41   1
    43    36    37   1
    44    36    42   1
    45    37    38   1
    46    37    43   1
    47    38    44   1
    48     1    45   1
    49     2    46   1
    50     3    47   1
    51     4    48   1
    52     6    49   1
    53     6    50   1
    54     7    51   1
    55     8    52   1
    56     9    53   1
    57    10    54   1
    58    11    55   1
    59    12    56   1
    60    13    57   1
    61    14    58   1
    62    15    59   1
    63    16    60   1
    64    17    61   1
    65    17    62   1
    66    17    63   1
    67    18    64   1
    68    18    65   1
    69    19    66   1
    70    20    67   1
    71    22    68   1
    72    23    69   1
    73    24    70   1
    74    25    71   1
    75    26    72   1
    76    27    73   1
    77    27    74   1
    78    28    75   1
    79    29    76   1
    80    32    77   1
    81    33    78   1
    82    34    79   1
    83    35    80   1
    84    36    81   1
    85    37    82   1
    86    38    83   1
    87    38    84   1
    88    39    85   1
    89    40    86   1
    90    41    87   1
    91    44    88   1
@<TRIPOS>SUBSTRUCTURE
     1  ACR      1

