@<TRIPOS>MOLECULE
2qmj_ligand_066
    88    91
SMALL
GAST_HUCK
****
This file was generated by PARSER (from files_GN.cpp)

@<TRIPOS>ATOM
      1 C1A       -20.2306   -7.2283   -9.2502 C.3         1 ACR       0.0141
      2 C2A       -20.7282   -8.5827   -9.8338 C.3         1 ACR       0.1303
      3 C3A       -20.2725   -8.7362  -11.3041 C.3         1 ACR       0.1215
      4 C4A       -20.8363   -7.5485  -12.1417 C.3         1 ACR       0.1112
      5 C5A       -20.8784   -6.2410  -11.4576 C.2         1 ACR      -0.0200
      6 C6A       -21.4137   -5.1110  -12.2235 C.3         1 ACR       0.0719
      7 C7A       -20.5150   -6.1145  -10.1582 C.2         1 ACR      -0.0543
      8 O2A       -20.3129   -9.6923   -9.0372 O.3         1 ACR      -0.3821
      9 O3A       -20.7449   -9.9818  -11.8199 O.3         1 ACR      -0.3843
     10 O4A       -20.0933   -7.4533  -13.3583 O.3         1 ACR      -0.3780
     11 O6A       -21.7234   -3.9432  -11.4647 O.3         1 ACR      -0.3839
     12 C1B       -18.6831   -6.0603   -4.7288 C.3         1 ACR       0.1886
     13 C2B       -18.0111   -5.1352   -5.7795 C.3         1 ACR       0.1370
     14 C3B       -18.5527   -5.4497   -7.1996 C.3         1 ACR       0.1304
     15 C4B       -18.2835   -6.9406   -7.5515 C.3         1 ACR       0.0341
     16 C5B       -18.7810   -7.8866   -6.4024 C.3         1 ACR       0.1038
     17 C6B       -18.2140   -9.3258   -6.5223 C.3         1 ACR      -0.0332
     18 N4B       -18.7713   -7.2821   -8.9218 N.4         1 ACR       0.2433
     19 O2B       -18.1851   -3.7732   -5.4292 O.3         1 ACR      -0.3840
     20 O3B       -17.9751   -4.5760   -8.1719 O.3         1 ACR      -0.3834
     21 O5B       -18.3770   -7.4212   -5.0905 O.3         1 ACR      -0.3401
     22 C1C       -21.3205   -2.9281   -1.6745 C.3         1 ACR       0.1884
     23 C2C       -21.2019   -4.3987   -1.1813 C.3         1 ACR       0.1341
     24 C3C       -20.3166   -5.2357   -2.1478 C.3         1 ACR       0.1144
     25 C4C       -20.8245   -5.1130   -3.6187 C.3         1 ACR       0.1184
     26 C5C       -21.0070   -3.6104   -4.0100 C.3         1 ACR       0.1134
     27 C6C       -21.7032   -3.4288   -5.3788 C.3         1 ACR       0.0730
     28 O2C       -20.7167   -4.4294    0.1571 O.3         1 ACR      -0.3841
     29 O3C       -20.3208   -6.6074   -1.7621 O.3         1 ACR      -0.3864
     30 O4C       -20.1231   -5.9260   -4.5987 O.3         1 ACR      -0.3401
     31 O5C       -21.8170   -2.9225   -3.0306 O.3         1 ACR      -0.3405
     32 O6C       -21.7541   -2.0623   -5.7799 O.3         1 ACR      -0.3924
     33 C1D       -18.8411   -0.6810    2.2211 C.3         1 ACR       0.1854
     34 C2D       -20.0104    0.0807    1.5405 C.3         1 ACR       0.1339
     35 C3D       -20.6850   -0.8063    0.4563 C.3         1 ACR       0.1144
     36 C4D       -19.6231   -1.3497   -0.5475 C.3         1 ACR       0.1184
     37 C5D       -18.4363   -2.0262    0.2116 C.3         1 ACR       0.1134
     38 C6D       -17.2663   -2.4064   -0.7278 C.3         1 ACR       0.0730
     39 O1D       -19.3169   -1.7589    3.0296 O.3         1 ACR      -0.3649
     40 O2D       -20.9594    0.5202    2.5125 O.3         1 ACR      -0.3841
     41 O3D       -21.6763   -0.0618   -0.2498 O.3         1 ACR      -0.3864
     42 O4D       -20.0978   -2.1502   -1.6554 O.3         1 ACR      -0.3401
     43 O5D       -17.8992   -1.1536    1.2351 O.3         1 ACR      -0.3407
     44 O6D       -16.6942   -1.2453   -1.3271 O.3         1 ACR      -0.3924
     45 H1        -20.8209   -7.0533   -8.3457 H           1 ACR       0.0950
     46 H2        -21.8227   -8.5770   -9.8238 H           1 ACR       0.0694
     47 H3        -19.1783   -8.7437  -11.3456 H           1 ACR       0.0671
     48 H4        -21.8642   -7.8015  -12.4156 H           1 ACR       0.0769
     49 H5        -22.3450   -5.4078  -12.7139 H           1 ACR       0.0706
     50 H6        -20.7015   -4.8286  -12.9997 H           1 ACR       0.0706
     51 H7        -20.4653   -5.2074   -9.7559 H           1 ACR       0.0299
     52 H8        -20.7046   -9.5337   -8.1512 H           1 ACR       0.2103
     53 H9        -20.4956  -10.0022  -12.7676 H           1 ACR       0.2102
     54 H10       -19.2435   -7.0186  -13.1250 H           1 ACR       0.2130
     55 H11       -22.3932   -4.2497  -10.8186 H           1 ACR       0.2125
     56 H12       -18.1954   -5.8929   -3.7693 H           1 ACR       0.0938
     57 H13       -16.9291   -5.3228   -5.7640 H           1 ACR       0.0672
     58 H14       -19.6238   -5.2679   -7.2146 H           1 ACR       0.0679
     59 H15       -17.1976   -7.0476   -7.6059 H           1 ACR       0.0903
     60 H16       -19.8689   -7.9513   -6.4250 H           1 ACR       0.0652
     61 H17       -18.7261   -9.9906   -5.8169 H           1 ACR       0.0257
     62 H18       -17.1433   -9.3351   -6.2889 H           1 ACR       0.0257
     63 H19       -18.3460   -9.7280   -7.5293 H           1 ACR       0.0257
     64 H20       -18.2835   -6.6633   -9.5790 H           1 ACR       0.2029
     65 H21       -18.4439   -8.2313   -9.1236 H           1 ACR       0.2029
     66 H22       -17.6808   -3.2836   -6.1058 H           1 ACR       0.2101
     67 H23       -17.0099   -4.7566   -8.1448 H           1 ACR       0.2102
     68 H24       -22.0855   -2.4223   -1.0834 H           1 ACR       0.0938
     69 H25       -22.2086   -4.8310   -1.1661 H           1 ACR       0.0671
     70 H26       -19.2969   -4.8614   -2.0755 H           1 ACR       0.0648
     71 H27       -21.8328   -5.5397   -3.6188 H           1 ACR       0.0651
     72 H28       -20.0391   -3.1201   -4.0560 H           1 ACR       0.0647
     73 H29       -22.7218   -3.8168   -5.3411 H           1 ACR       0.0584
     74 H30       -21.1614   -3.9712   -6.1468 H           1 ACR       0.0584
     75 H31       -20.7616   -5.3652    0.4387 H           1 ACR       0.2101
     76 H32       -19.9273   -6.6343   -0.8663 H           1 ACR       0.2100
     77 H33       -20.8215   -1.7595   -5.8022 H           1 ACR       0.2095
     78 H34       -18.3080    0.0104    2.8827 H           1 ACR       0.0935
     79 H35       -19.5964    0.9723    1.0620 H           1 ACR       0.0671
     80 H36       -21.1832   -1.6401    0.9523 H           1 ACR       0.0648
     81 H37       -19.1997   -0.4692   -1.0346 H           1 ACR       0.0651
     82 H38       -18.7829   -2.9436    0.6866 H           1 ACR       0.0647
     83 H39       -17.6081   -3.0814   -1.5163 H           1 ACR       0.0584
     84 H40       -16.4899   -2.9214   -0.1537 H           1 ACR       0.0584
     85 H41       -18.5111   -2.1514    3.4294 H           1 ACR       0.2126
     86 H42       -21.3143   -0.2959    2.9243 H           1 ACR       0.2101
     87 H43       -22.3007    0.2619    0.4347 H           1 ACR       0.2100
     88 H44       -15.9588   -1.5837   -1.8829 H           1 ACR       0.2095
@<TRIPOS>BOND
     1     1     2   1
     2     1     7   1
     3    18     1   1
     4     2     3   1
     5     2     8   1
     6     3     4   1
     7     3     9   1
     8     5     4   1
     9     4    10   1
    10     5     6   1
    11     7     5   2
    12     6    11   1
    13    12    13   1
    14    12    21   1
    15    30    12   1
    16    13    14   1
    17    13    19   1
    18    14    15   1
    19    14    20   1
    20    16    15   1
    21    15    18   1
    22    16    17   1
    23    21    16   1
    24    22    23   1
    25    22    31   1
    26    42    22   1
    27    23    24   1
    28    23    28   1
    29    24    25   1
    30    24    29   1
    31    26    25   1
    32    25    30   1
    33    26    27   1
    34    31    26   1
    35    27    32   1
    36    34    33   1
    37    33    39   1
    38    33    43   1
    39    35    34   1
    40    34    40   1
    41    36    35   1
    42    35    41   1
    43    36    37   1
    44    36    42   1
    45    37    38   1
    46    37    43   1
    47    38    44   1
    48     1    45   1
    49     2    46   1
    50     3    47   1
    51     4    48   1
    52     6    49   1
    53     6    50   1
    54     7    51   1
    55     8    52   1
    56     9    53   1
    57    10    54   1
    58    11    55   1
    59    12    56   1
    60    13    57   1
    61    14    58   1
    62    15    59   1
    63    16    60   1
    64    17    61   1
    65    17    62   1
    66    17    63   1
    67    18    64   1
    68    18    65   1
    69    19    66   1
    70    20    67   1
    71    22    68   1
    72    23    69   1
    73    24    70   1
    74    25    71   1
    75    26    72   1
    76    27    73   1
    77    27    74   1
    78    28    75   1
    79    29    76   1
    80    32    77   1
    81    33    78   1
    82    34    79   1
    83    35    80   1
    84    36    81   1
    85    37    82   1
    86    38    83   1
    87    38    84   1
    88    39    85   1
    89    40    86   1
    90    41    87   1
    91    44    88   1
@<TRIPOS>SUBSTRUCTURE
     1  ACR      1

