@<TRIPOS>MOLECULE
2qmj_ligand_057
    88    91
SMALL
GAST_HUCK
****
This file was generated by PARSER (from files_GN.cpp)

@<TRIPOS>ATOM
      1 C1A       -20.0725   -6.2303  -10.8001 C.3         1 ACR       0.0141
      2 C2A       -21.4196   -6.3792  -11.6049 C.3         1 ACR       0.1303
      3 C3A       -21.2031   -6.9621  -13.0267 C.3         1 ACR       0.1215
      4 C4A       -20.3199   -8.2377  -12.9429 C.3         1 ACR       0.1112
      5 C5A       -19.0393   -7.9829  -12.2759 C.2         1 ACR      -0.0200
      6 C6A       -17.8871   -8.8168  -12.6099 C.3         1 ACR       0.0719
      7 C7A       -18.9577   -7.0398  -11.3090 C.2         1 ACR      -0.0543
      8 O2A       -22.3777   -7.2183  -10.9483 O.3         1 ACR      -0.3821
      9 O3A       -20.5995   -5.9694  -13.8557 O.3         1 ACR      -0.3843
     10 O4A       -21.0158   -9.2542  -12.2193 O.3         1 ACR      -0.3780
     11 O6A       -18.1561  -10.1614  -12.2230 O.3         1 ACR      -0.3839
     12 C1B       -18.5055   -6.7336   -5.4920 C.3         1 ACR       0.1886
     13 C2B       -17.8694   -5.6977   -6.4565 C.3         1 ACR       0.1370
     14 C3B       -18.8294   -5.4227   -7.6431 C.3         1 ACR       0.1304
     15 C4B       -19.2154   -6.7438   -8.3803 C.3         1 ACR       0.0341
     16 C5B       -19.6305   -7.8535   -7.3576 C.3         1 ACR       0.1038
     17 C6B       -19.6816   -9.2628   -8.0095 C.3         1 ACR      -0.0332
     18 N4B       -20.3299   -6.5007   -9.3523 N.4         1 ACR       0.2433
     19 O2B       -17.5339   -4.5007   -5.7638 O.3         1 ACR      -0.3840
     20 O3B       -18.1891   -4.5133   -8.5403 O.3         1 ACR      -0.3834
     21 O5B       -18.7021   -7.9488   -6.2430 O.3         1 ACR      -0.3401
     22 C1C       -21.4292   -5.0545   -1.9153 C.3         1 ACR       0.1884
     23 C2C       -22.1601   -5.8560   -3.0324 C.3         1 ACR       0.1341
     24 C3C       -21.8360   -5.3068   -4.4516 C.3         1 ACR       0.1144
     25 C4C       -20.3040   -5.0959   -4.6734 C.3         1 ACR       0.1184
     26 C5C       -19.6481   -4.3354   -3.4730 C.3         1 ACR       0.1134
     27 C6C       -19.8739   -2.7983   -3.5208 C.3         1 ACR       0.0730
     28 O2C       -21.8124   -7.2415   -2.9422 O.3         1 ACR      -0.3841
     29 O3C       -22.5477   -4.0971   -4.6928 O.3         1 ACR      -0.3864
     30 O4C       -19.7731   -6.4281   -4.8643 O.3         1 ACR      -0.3401
     31 O5C       -20.0196   -4.9214   -2.2162 O.3         1 ACR      -0.3405
     32 O6C       -19.0168   -2.1211   -2.6007 O.3         1 ACR      -0.3924
     33 C1D       -17.9774   -6.9517    1.0583 C.3         1 ACR       0.1854
     34 C2D       -18.9417   -8.0690    0.5809 C.3         1 ACR       0.1339
     35 C3D       -20.0158   -7.4836   -0.3706 C.3         1 ACR       0.1144
     36 C4D       -20.7119   -6.2315    0.2447 C.3         1 ACR       0.1184
     37 C5D       -19.6760   -5.2039    0.8221 C.3         1 ACR       0.1134
     38 C6D       -20.3236   -4.0840    1.6727 C.3         1 ACR       0.0730
     39 O1D       -17.1593   -6.4757   -0.0119 O.3         1 ACR      -0.3649
     40 O2D       -18.2186   -9.1135   -0.0711 O.3         1 ACR      -0.3841
     41 O3D       -20.9899   -8.4835   -0.6719 O.3         1 ACR      -0.3864
     42 O4D       -21.7148   -5.6723   -0.6359 O.3         1 ACR      -0.3401
     43 O5D       -18.7179   -5.8761    1.6720 O.3         1 ACR      -0.3407
     44 O6D       -21.0182   -3.1384    0.8654 O.3         1 ACR      -0.3924
     45 H1        -19.7611   -5.1872  -10.9034 H           1 ACR       0.0950
     46 H2        -21.8908   -5.3944  -11.7037 H           1 ACR       0.0694
     47 H3        -22.1683   -7.2122  -13.4758 H           1 ACR       0.0671
     48 H4        -20.1664   -8.5998  -13.9644 H           1 ACR       0.0769
     49 H5        -16.9712   -8.5012  -12.1007 H           1 ACR       0.0706
     50 H6        -17.6906   -8.7765  -13.6834 H           1 ACR       0.0706
     51 H7        -18.0570   -6.8431  -10.9319 H           1 ACR       0.0299
     52 H8        -22.9713   -6.6130  -10.4581 H           1 ACR       0.2103
     53 H9        -20.1708   -6.4648  -14.5907 H           1 ACR       0.2102
     54 H10       -21.0730  -10.0153  -12.8321 H           1 ACR       0.2130
     55 H11       -17.3747  -10.6757  -12.5125 H           1 ACR       0.2125
     56 H12       -17.7874   -6.9527   -4.6991 H           1 ACR       0.0938
     57 H13       -16.9345   -6.1114   -6.8426 H           1 ACR       0.0672
     58 H14       -19.7388   -4.9485   -7.2489 H           1 ACR       0.0679
     59 H15       -18.3234   -7.1093   -8.8853 H           1 ACR       0.0903
     60 H16       -20.6352   -7.6322   -6.9720 H           1 ACR       0.0652
     61 H17       -19.9619  -10.0076   -7.2606 H           1 ACR       0.0257
     62 H18       -18.7013   -9.5283   -8.4153 H           1 ACR       0.0257
     63 H19       -20.4192   -9.2947   -8.8153 H           1 ACR       0.0257
     64 H20       -20.9443   -7.3165   -9.3235 H           1 ACR       0.2029
     65 H21       -20.8716   -5.7030   -9.0015 H           1 ACR       0.2029
     66 H22       -17.4605   -3.8095   -6.4530 H           1 ACR       0.2101
     67 H23       -17.2966   -4.8756   -8.6928 H           1 ACR       0.2102
     68 H24       -21.8680   -4.0556   -1.8601 H           1 ACR       0.0938
     69 H25       -23.2388   -5.7940   -2.8652 H           1 ACR       0.0671
     70 H26       -22.2080   -6.0234   -5.1906 H           1 ACR       0.0648
     71 H27       -20.1589   -4.5391   -5.6115 H           1 ACR       0.0651
     72 H28       -18.5726   -4.4720   -3.5383 H           1 ACR       0.0647
     73 H29       -20.9070   -2.5267   -3.2821 H           1 ACR       0.0584
     74 H30       -19.6524   -2.4186   -4.5268 H           1 ACR       0.0584
     75 H31       -20.8536   -7.2887   -3.1412 H           1 ACR       0.2101
     76 H32       -22.4284   -3.9185   -5.6478 H           1 ACR       0.2100
     77 H33       -18.9971   -1.1900   -2.9263 H           1 ACR       0.2095
     78 H34       -17.3120   -7.3711    1.8169 H           1 ACR       0.0935
     79 H35       -19.4399   -8.5007    1.4550 H           1 ACR       0.0671
     80 H36       -19.5285   -7.2244   -1.3106 H           1 ACR       0.0648
     81 H37       -21.2821   -6.5960    1.1011 H           1 ACR       0.0651
     82 H38       -19.1259   -4.7180    0.0169 H           1 ACR       0.0647
     83 H39       -19.5440   -3.5426    2.2182 H           1 ACR       0.0584
     84 H40       -21.0192   -4.5084    2.4011 H           1 ACR       0.0584
     85 H41       -16.6839   -5.7009    0.3613 H           1 ACR       0.2126
     86 H42       -17.6687   -9.5257    0.6323 H           1 ACR       0.2101
     87 H43       -21.3901   -8.7267    0.1890 H           1 ACR       0.2100
     88 H44       -21.3849   -2.4809    1.4984 H           1 ACR       0.2095
@<TRIPOS>BOND
     1     1     2   1
     2     1     7   1
     3    18     1   1
     4     2     3   1
     5     2     8   1
     6     3     4   1
     7     3     9   1
     8     5     4   1
     9     4    10   1
    10     5     6   1
    11     7     5   2
    12     6    11   1
    13    12    13   1
    14    12    21   1
    15    30    12   1
    16    13    14   1
    17    13    19   1
    18    14    15   1
    19    14    20   1
    20    16    15   1
    21    15    18   1
    22    16    17   1
    23    21    16   1
    24    22    23   1
    25    22    31   1
    26    42    22   1
    27    23    24   1
    28    23    28   1
    29    24    25   1
    30    24    29   1
    31    26    25   1
    32    25    30   1
    33    26    27   1
    34    31    26   1
    35    27    32   1
    36    34    33   1
    37    33    39   1
    38    33    43   1
    39    35    34   1
    40    34    40   1
    41    36    35   1
    42    35    41   1
    43    36    37   1
    44    36    42   1
    45    37    38   1
    46    37    43   1
    47    38    44   1
    48     1    45   1
    49     2    46   1
    50     3    47   1
    51     4    48   1
    52     6    49   1
    53     6    50   1
    54     7    51   1
    55     8    52   1
    56     9    53   1
    57    10    54   1
    58    11    55   1
    59    12    56   1
    60    13    57   1
    61    14    58   1
    62    15    59   1
    63    16    60   1
    64    17    61   1
    65    17    62   1
    66    17    63   1
    67    18    64   1
    68    18    65   1
    69    19    66   1
    70    20    67   1
    71    22    68   1
    72    23    69   1
    73    24    70   1
    74    25    71   1
    75    26    72   1
    76    27    73   1
    77    27    74   1
    78    28    75   1
    79    29    76   1
    80    32    77   1
    81    33    78   1
    82    34    79   1
    83    35    80   1
    84    36    81   1
    85    37    82   1
    86    38    83   1
    87    38    84   1
    88    39    85   1
    89    40    86   1
    90    41    87   1
    91    44    88   1
@<TRIPOS>SUBSTRUCTURE
     1  ACR      1

