@<TRIPOS>MOLECULE
2qmj_ligand_055
    88    91
SMALL
GAST_HUCK
****
This file was generated by PARSER (from files_GN.cpp)

@<TRIPOS>ATOM
      1 C1A       -20.4629   -7.6070  -10.1056 C.3         1 ACR       0.0141
      2 C2A       -19.3253   -7.1970  -11.0921 C.3         1 ACR       0.1303
      3 C3A       -19.6414   -7.7329  -12.5125 C.3         1 ACR       0.1215
      4 C4A       -21.0286   -7.2209  -13.0035 C.3         1 ACR       0.1112
      5 C5A       -22.0657   -7.1139  -11.9654 C.2         1 ACR      -0.0200
      6 C6A       -23.4204   -6.7321  -12.3709 C.3         1 ACR       0.0719
      7 C7A       -21.7844   -7.2866  -10.6525 C.2         1 ACR      -0.0543
      8 O2A       -19.1889   -5.7750  -11.0747 O.3         1 ACR      -0.3821
      9 O3A       -19.6187   -9.1635  -12.4634 O.3         1 ACR      -0.3843
     10 O4A       -20.8670   -5.9331  -13.6021 O.3         1 ACR      -0.3780
     11 O6A       -23.7001   -5.3767  -12.0402 O.3         1 ACR      -0.3839
     12 C1B       -17.4799   -6.9138   -5.4669 C.3         1 ACR       0.1886
     13 C2B       -17.5307   -5.6826   -6.4121 C.3         1 ACR       0.1370
     14 C3B       -18.8174   -5.6869   -7.2862 C.3         1 ACR       0.1304
     15 C4B       -19.0459   -7.0599   -7.9866 C.3         1 ACR       0.0341
     16 C5B       -18.9605   -8.2077   -6.9306 C.3         1 ACR       0.1038
     17 C6B       -19.0470   -9.6272   -7.5378 C.3         1 ACR      -0.0332
     18 N4B       -20.3442   -7.0169   -8.7324 N.4         1 ACR       0.2433
     19 O2B       -17.4345   -4.4774   -5.6553 O.3         1 ACR      -0.3840
     20 O3B       -18.7209   -4.6602   -8.2801 O.3         1 ACR      -0.3834
     21 O5B       -17.6994   -8.1243   -6.2214 O.3         1 ACR      -0.3401
     22 C1C       -19.4119   -8.9114   -1.5229 C.3         1 ACR       0.1884
     23 C2C       -20.2957   -7.8279   -2.2115 C.3         1 ACR       0.1341
     24 C3C       -19.5174   -6.4834   -2.3200 C.3         1 ACR       0.1144
     25 C4C       -18.1484   -6.6795   -3.0402 C.3         1 ACR       0.1184
     26 C5C       -17.3374   -7.8933   -2.4521 C.3         1 ACR       0.1134
     27 C6C       -16.3847   -7.5418   -1.2748 C.3         1 ACR       0.0730
     28 O2C       -20.7010   -8.2289   -3.5215 O.3         1 ACR      -0.3841
     29 O3C       -19.3635   -5.9019   -1.0281 O.3         1 ACR      -0.3864
     30 O4C       -18.4835   -6.8723   -4.4313 O.3         1 ACR      -0.3401
     31 O5C       -18.1432   -9.0603   -2.1792 O.3         1 ACR      -0.3405
     32 O6C       -17.0518   -7.0949   -0.1028 O.3         1 ACR      -0.3924
     33 C1D       -20.8889  -13.9355   -3.2492 C.3         1 ACR       0.1854
     34 C2D       -19.7195  -13.1373   -3.8710 C.3         1 ACR       0.1339
     35 C3D       -19.2187  -12.0285   -2.9050 C.3         1 ACR       0.1144
     36 C4D       -20.3924  -11.1347   -2.3880 C.3         1 ACR       0.1184
     37 C5D       -21.5387  -12.0459   -1.8357 C.3         1 ACR       0.1134
     38 C6D       -22.8263  -11.2615   -1.4667 C.3         1 ACR       0.0730
     39 O1D       -20.4536  -14.7700   -2.1727 O.3         1 ACR      -0.3649
     40 O2D       -18.6496  -14.0125   -4.2259 O.3         1 ACR      -0.3841
     41 O3D       -18.2361  -11.2728   -3.6111 O.3         1 ACR      -0.3864
     42 O4D       -20.0260  -10.2088   -1.3318 O.3         1 ACR      -0.3401
     43 O5D       -21.9261  -13.0289   -2.8257 O.3         1 ACR      -0.3407
     44 O6D       -22.5722  -10.2477   -0.4980 O.3         1 ACR      -0.3924
     45 H1        -20.4331   -8.6916   -9.9999 H           1 ACR       0.0950
     46 H2        -18.3707   -7.6328  -10.7885 H           1 ACR       0.0694
     47 H3        -18.8527   -7.4247  -13.2057 H           1 ACR       0.0671
     48 H4        -21.3782   -7.9009  -13.7865 H           1 ACR       0.0769
     49 H5        -24.1660   -7.3665  -11.8875 H           1 ACR       0.0706
     50 H6        -23.5628   -6.8255  -13.4496 H           1 ACR       0.0706
     51 H7        -22.5370   -7.2362  -10.0031 H           1 ACR       0.0299
     52 H8        -18.5775   -5.5645  -11.8068 H           1 ACR       0.2103
     53 H9        -19.7574   -9.4930  -13.3776 H           1 ACR       0.2102
     54 H10       -20.2988   -6.0819  -14.3881 H           1 ACR       0.2130
     55 H11       -23.3249   -5.2359  -11.1490 H           1 ACR       0.2125
     56 H12       -16.4698   -6.9732   -5.0528 H           1 ACR       0.0938
     57 H13       -16.6550   -5.7309   -7.0693 H           1 ACR       0.0672
     58 H14       -19.6758   -5.4578   -6.6490 H           1 ACR       0.0679
     59 H15       -18.2093   -7.1905   -8.6694 H           1 ACR       0.0903
     60 H16       -19.7890   -8.1140   -6.2211 H           1 ACR       0.0652
     61 H17       -18.8259  -10.3751   -6.7754 H           1 ACR       0.0257
     62 H18       -18.3329   -9.7441   -8.3561 H           1 ACR       0.0257
     63 H19       -20.0560   -9.8229   -7.9011 H           1 ACR       0.0257
     64 H20       -21.0422   -7.4872   -8.1471 H           1 ACR       0.2029
     65 H21       -20.6431   -6.0363   -8.7925 H           1 ACR       0.2029
     66 H22       -17.4222   -3.7516   -6.3109 H           1 ACR       0.2101
     67 H23       -17.9107   -4.8606   -8.7942 H           1 ACR       0.2102
     68 H24       -19.2142   -8.5645   -0.5073 H           1 ACR       0.0938
     69 H25       -21.2029   -7.6777   -1.6154 H           1 ACR       0.0671
     70 H26       -20.1269   -5.7748   -2.8890 H           1 ACR       0.0648
     71 H27       -17.5706   -5.7530   -2.9530 H           1 ACR       0.0651
     72 H28       -16.6583   -8.2413   -3.2350 H           1 ACR       0.0647
     73 H29       -15.6865   -6.7624   -1.5938 H           1 ACR       0.0584
     74 H30       -15.8016   -8.4275   -1.0121 H           1 ACR       0.0584
     75 H31       -21.4056   -7.5969   -3.7889 H           1 ACR       0.2101
     76 H32       -18.9702   -5.0164   -1.1920 H           1 ACR       0.2100
     77 H33       -16.3370   -6.9080    0.5378 H           1 ACR       0.2095
     78 H34       -21.3143  -14.5864   -4.0179 H           1 ACR       0.0935
     79 H35       -20.0822  -12.6596   -4.7884 H           1 ACR       0.0671
     80 H36       -18.7323  -12.4931   -2.0435 H           1 ACR       0.0648
     81 H37       -20.8186  -10.5911   -3.2329 H           1 ACR       0.0651
     82 H38       -21.1954  -12.5597   -0.9296 H           1 ACR       0.0647
     83 H39       -23.5645  -11.9479   -1.0443 H           1 ACR       0.0584
     84 H40       -23.2593  -10.8005   -2.3589 H           1 ACR       0.0584
     85 H41       -21.2776  -15.0290   -1.7076 H           1 ACR       0.2126
     86 H42       -18.7939  -14.2382   -5.1716 H           1 ACR       0.2101
     87 H43       -18.7287  -10.7827   -4.3038 H           1 ACR       0.2100
     88 H44       -23.4375   -9.8113   -0.3508 H           1 ACR       0.2095
@<TRIPOS>BOND
     1     1     2   1
     2     1     7   1
     3    18     1   1
     4     2     3   1
     5     2     8   1
     6     3     4   1
     7     3     9   1
     8     5     4   1
     9     4    10   1
    10     5     6   1
    11     7     5   2
    12     6    11   1
    13    12    13   1
    14    12    21   1
    15    30    12   1
    16    13    14   1
    17    13    19   1
    18    14    15   1
    19    14    20   1
    20    16    15   1
    21    15    18   1
    22    16    17   1
    23    21    16   1
    24    22    23   1
    25    22    31   1
    26    42    22   1
    27    23    24   1
    28    23    28   1
    29    24    25   1
    30    24    29   1
    31    26    25   1
    32    25    30   1
    33    26    27   1
    34    31    26   1
    35    27    32   1
    36    34    33   1
    37    33    39   1
    38    33    43   1
    39    35    34   1
    40    34    40   1
    41    36    35   1
    42    35    41   1
    43    36    37   1
    44    36    42   1
    45    37    38   1
    46    37    43   1
    47    38    44   1
    48     1    45   1
    49     2    46   1
    50     3    47   1
    51     4    48   1
    52     6    49   1
    53     6    50   1
    54     7    51   1
    55     8    52   1
    56     9    53   1
    57    10    54   1
    58    11    55   1
    59    12    56   1
    60    13    57   1
    61    14    58   1
    62    15    59   1
    63    16    60   1
    64    17    61   1
    65    17    62   1
    66    17    63   1
    67    18    64   1
    68    18    65   1
    69    19    66   1
    70    20    67   1
    71    22    68   1
    72    23    69   1
    73    24    70   1
    74    25    71   1
    75    26    72   1
    76    27    73   1
    77    27    74   1
    78    28    75   1
    79    29    76   1
    80    32    77   1
    81    33    78   1
    82    34    79   1
    83    35    80   1
    84    36    81   1
    85    37    82   1
    86    38    83   1
    87    38    84   1
    88    39    85   1
    89    40    86   1
    90    41    87   1
    91    44    88   1
@<TRIPOS>SUBSTRUCTURE
     1  ACR      1

