@<TRIPOS>MOLECULE
2qmj_ligand_008
    88    91
SMALL
GAST_HUCK
****
This file was generated by PARSER (from files_GN.cpp)

@<TRIPOS>ATOM
      1 C1A       -19.6831   -6.2383  -10.5223 C.3         1 ACR       0.0141
      2 C2A       -20.6979   -5.8144  -11.6240 C.3         1 ACR       0.1303
      3 C3A       -21.6738   -6.9818  -11.9264 C.3         1 ACR       0.1215
      4 C4A       -20.8927   -8.2798  -12.3110 C.3         1 ACR       0.1112
      5 C5A       -19.5910   -8.4687  -11.6424 C.2         1 ACR      -0.0200
      6 C6A       -18.8209   -9.6937  -11.8909 C.3         1 ACR       0.0719
      7 C7A       -19.0396   -7.5042  -10.8701 C.2         1 ACR      -0.0543
      8 O2A       -21.3908   -4.6213  -11.2546 O.3         1 ACR      -0.3821
      9 O3A       -22.5726   -6.6153  -12.9773 O.3         1 ACR      -0.3843
     10 O4A       -21.7639   -9.3855  -12.0545 O.3         1 ACR      -0.3780
     11 O6A       -17.6844   -9.4275  -12.7143 O.3         1 ACR      -0.3839
     12 C1B       -19.3363   -6.3355   -5.0000 C.3         1 ACR       0.1886
     13 C2B       -18.4821   -5.3996   -5.9104 C.3         1 ACR       0.1370
     14 C3B       -19.2421   -5.1613   -7.2487 C.3         1 ACR       0.1304
     15 C4B       -19.5050   -6.5242   -7.9598 C.3         1 ACR       0.0341
     16 C5B       -20.2185   -7.5135   -6.9765 C.3         1 ACR       0.1038
     17 C6B       -20.2846   -8.9600   -7.5197 C.3         1 ACR      -0.0332
     18 N4B       -20.3415   -6.3321   -9.1863 N.4         1 ACR       0.2433
     19 O2B       -18.1394   -4.1856   -5.2428 O.3         1 ACR      -0.3840
     20 O3B       -18.5234   -4.2660   -8.0938 O.3         1 ACR      -0.3834
     21 O5B       -19.5323   -7.5747   -5.7052 O.3         1 ACR      -0.3401
     22 C1C       -20.3820   -2.5906   -1.7773 C.3         1 ACR       0.1884
     23 C2C       -20.5086   -4.0213   -1.1843 C.3         1 ACR       0.1341
     24 C3C       -20.1141   -5.0766   -2.2529 C.3         1 ACR       0.1144
     25 C4C       -20.9467   -4.8903   -3.5583 C.3         1 ACR       0.1184
     26 C5C       -20.9637   -3.3910   -4.0320 C.3         1 ACR       0.1134
     27 C6C       -22.0314   -3.1431   -5.1299 C.3         1 ACR       0.0730
     28 O2C       -19.7315   -4.1713    0.0001 O.3         1 ACR      -0.3841
     29 O3C       -20.3086   -6.4048   -1.7492 O.3         1 ACR      -0.3864
     30 O4C       -20.6495   -5.8499   -4.6101 O.3         1 ACR      -0.3401
     31 O5C       -21.2522   -2.4962   -2.9285 O.3         1 ACR      -0.3405
     32 O6C       -21.7175   -2.0121   -5.9446 O.3         1 ACR      -0.3924
     33 C1D       -16.0132   -2.6657    0.8747 C.3         1 ACR       0.1854
     34 C2D       -16.8625   -1.3685    0.9761 C.3         1 ACR       0.1339
     35 C3D       -18.1756   -1.4982    0.1476 C.3         1 ACR       0.1144
     36 C4D       -17.9025   -2.0022   -1.3034 C.3         1 ACR       0.1184
     37 C5D       -16.9517   -3.2494   -1.3069 C.3         1 ACR       0.1134
     38 C6D       -16.4451   -3.6766   -2.7067 C.3         1 ACR       0.0730
     39 O1D       -16.6124   -3.7629    1.5754 O.3         1 ACR      -0.3649
     40 O2D       -17.1441   -1.0763    2.3418 O.3         1 ACR      -0.3841
     41 O3D       -18.8341   -0.2303    0.0873 O.3         1 ACR      -0.3864
     42 O4D       -19.0498   -2.1828   -2.1847 O.3         1 ACR      -0.3401
     43 O5D       -15.7751   -2.9954   -0.5074 O.3         1 ACR      -0.3407
     44 O6D       -16.2818   -2.5832   -3.6203 O.3         1 ACR      -0.3924
     45 H1        -18.9163   -5.4619  -10.4806 H           1 ACR       0.0950
     46 H2        -20.1521   -5.5838  -12.5412 H           1 ACR       0.0694
     47 H3        -22.2816   -7.1691  -11.0337 H           1 ACR       0.0671
     48 H4        -20.6970   -8.2480  -13.3885 H           1 ACR       0.0769
     49 H5        -19.4135  -10.4705  -12.3865 H           1 ACR       0.0706
     50 H6        -18.4749  -10.1120  -10.9394 H           1 ACR       0.0706
     51 H7        -18.1444   -7.6767  -10.4691 H           1 ACR       0.0299
     52 H8        -22.2365   -4.9161  -10.8647 H           1 ACR       0.2103
     53 H9        -23.1446   -7.4049  -13.1143 H           1 ACR       0.2102
     54 H10       -21.5796  -10.0242  -12.7727 H           1 ACR       0.2130
     55 H11       -18.0380   -9.4429  -13.6273 H           1 ACR       0.2125
     56 H12       -18.7479   -6.5954   -4.1133 H           1 ACR       0.0938
     57 H13       -17.5336   -5.9154   -6.1270 H           1 ACR       0.0672
     58 H14       -20.1939   -4.6826   -7.0238 H           1 ACR       0.0679
     59 H15       -18.5333   -6.9576   -8.2172 H           1 ACR       0.0903
     60 H16       -21.2435   -7.1690   -6.8094 H           1 ACR       0.0652
     61 H17       -20.8051   -9.6001   -6.8039 H           1 ACR       0.0257
     62 H18       -19.2800   -9.3549   -7.6765 H           1 ACR       0.0257
     63 H19       -20.8292   -9.0010   -8.4663 H           1 ACR       0.0257
     64 H20       -21.0083   -7.1022   -9.2428 H           1 ACR       0.2029
     65 H21       -20.8893   -5.4817   -9.0415 H           1 ACR       0.2029
     66 H22       -17.6546   -3.6472   -5.9049 H           1 ACR       0.2101
     67 H23       -18.2934   -3.5008   -7.5267 H           1 ACR       0.2102
     68 H24       -20.7799   -1.8755   -1.0585 H           1 ACR       0.0938
     69 H25       -21.5555   -4.1789   -0.9110 H           1 ACR       0.0671
     70 H26       -19.0526   -4.9570   -2.4836 H           1 ACR       0.0648
     71 H27       -21.9818   -5.1322   -3.2779 H           1 ACR       0.0651
     72 H28       -19.9899   -3.1317   -4.4436 H           1 ACR       0.0647
     73 H29       -23.0195   -2.9721   -4.6835 H           1 ACR       0.0584
     74 H30       -22.1201   -4.0129   -5.7861 H           1 ACR       0.0584
     75 H31       -20.0869   -4.9617    0.4510 H           1 ACR       0.2101
     76 H32       -19.5591   -6.5592   -1.1370 H           1 ACR       0.2100
     77 H33       -20.7422   -1.9622   -5.9562 H           1 ACR       0.2095
     78 H34       -15.0368   -2.4788    1.3354 H           1 ACR       0.0935
     79 H35       -16.2660   -0.5470    0.5737 H           1 ACR       0.0671
     80 H36       -18.8389   -2.1940    0.6688 H           1 ACR       0.0648
     81 H37       -17.3318   -1.1922   -1.7835 H           1 ACR       0.0651
     82 H38       -17.4770   -4.1055   -0.8844 H           1 ACR       0.0647
     83 H39       -17.1387   -4.3935   -3.1519 H           1 ACR       0.0584
     84 H40       -15.4731   -4.1776   -2.6174 H           1 ACR       0.0584
     85 H41       -16.6012   -3.4940    2.5181 H           1 ACR       0.2126
     86 H42       -17.3446   -0.1182    2.3720 H           1 ACR       0.2101
     87 H43       -19.2881   -0.1331    0.9521 H           1 ACR       0.2100
     88 H44       -17.1951   -2.3551   -3.9041 H           1 ACR       0.2095
@<TRIPOS>BOND
     1     1     2   1
     2     1     7   1
     3    18     1   1
     4     2     3   1
     5     2     8   1
     6     3     4   1
     7     3     9   1
     8     5     4   1
     9     4    10   1
    10     5     6   1
    11     7     5   2
    12     6    11   1
    13    12    13   1
    14    12    21   1
    15    30    12   1
    16    13    14   1
    17    13    19   1
    18    14    15   1
    19    14    20   1
    20    16    15   1
    21    15    18   1
    22    16    17   1
    23    21    16   1
    24    22    23   1
    25    22    31   1
    26    42    22   1
    27    23    24   1
    28    23    28   1
    29    24    25   1
    30    24    29   1
    31    26    25   1
    32    25    30   1
    33    26    27   1
    34    31    26   1
    35    27    32   1
    36    34    33   1
    37    33    39   1
    38    33    43   1
    39    35    34   1
    40    34    40   1
    41    36    35   1
    42    35    41   1
    43    36    37   1
    44    36    42   1
    45    37    38   1
    46    37    43   1
    47    38    44   1
    48     1    45   1
    49     2    46   1
    50     3    47   1
    51     4    48   1
    52     6    49   1
    53     6    50   1
    54     7    51   1
    55     8    52   1
    56     9    53   1
    57    10    54   1
    58    11    55   1
    59    12    56   1
    60    13    57   1
    61    14    58   1
    62    15    59   1
    63    16    60   1
    64    17    61   1
    65    17    62   1
    66    17    63   1
    67    18    64   1
    68    18    65   1
    69    19    66   1
    70    20    67   1
    71    22    68   1
    72    23    69   1
    73    24    70   1
    74    25    71   1
    75    26    72   1
    76    27    73   1
    77    27    74   1
    78    28    75   1
    79    29    76   1
    80    32    77   1
    81    33    78   1
    82    34    79   1
    83    35    80   1
    84    36    81   1
    85    37    82   1
    86    38    83   1
    87    38    84   1
    88    39    85   1
    89    40    86   1
    90    41    87   1
    91    44    88   1
@<TRIPOS>SUBSTRUCTURE
     1  ACR      1

