@<TRIPOS>MOLECULE
2qmj_ligand_012
    88    91
SMALL
GAST_HUCK
****
This file was generated by PARSER (from files_GN.cpp)

@<TRIPOS>ATOM
      1 C1A       -19.5501   -5.9347  -10.9424 C.3         1 ACR       0.0141
      2 C2A       -20.8021   -5.6679  -11.8268 C.3         1 ACR       0.1303
      3 C3A       -21.6523   -6.9620  -11.9160 C.3         1 ACR       0.1215
      4 C4A       -20.7935   -8.1753  -12.4080 C.3         1 ACR       0.1112
      5 C5A       -19.3647   -8.1552  -12.0399 C.2         1 ACR      -0.0200
      6 C6A       -18.4933   -9.2661  -12.4212 C.3         1 ACR       0.0719
      7 C7A       -18.8000   -7.0679  -11.4685 C.2         1 ACR      -0.0543
      8 O2A       -21.5476   -4.5598  -11.3259 O.3         1 ACR      -0.3821
      9 O3A       -22.7668   -6.7559  -12.7871 O.3         1 ACR      -0.3843
     10 O4A       -21.4355   -9.3609  -11.9259 O.3         1 ACR      -0.3780
     11 O6A       -17.5737   -8.8566  -13.4273 O.3         1 ACR      -0.3839
     12 C1B       -17.7981   -6.9853   -5.8042 C.3         1 ACR       0.1886
     13 C2B       -17.7491   -5.5276   -6.3545 C.3         1 ACR       0.1370
     14 C3B       -18.8724   -5.2815   -7.4004 C.3         1 ACR       0.1304
     15 C4B       -18.8371   -6.3691   -8.5172 C.3         1 ACR       0.0341
     16 C5B       -18.9568   -7.7611   -7.8218 C.3         1 ACR       0.1038
     17 C6B       -18.9258   -8.9780   -8.7765 C.3         1 ACR      -0.0332
     18 N4B       -19.9298   -6.1424   -9.5116 N.4         1 ACR       0.2433
     19 O2B       -17.8291   -4.5725   -5.2973 O.3         1 ACR      -0.3840
     20 O3B       -18.7296   -3.9935   -7.9872 O.3         1 ACR      -0.3834
     21 O5B       -17.8541   -7.9249   -6.8986 O.3         1 ACR      -0.3401
     22 C1C       -18.3214  -11.2164   -3.3776 C.3         1 ACR       0.1884
     23 C2C       -19.6552  -10.9140   -4.1176 C.3         1 ACR       0.1341
     24 C3C       -19.5221   -9.6120   -4.9514 C.3         1 ACR       0.1144
     25 C4C       -19.0280   -8.4091   -4.0907 C.3         1 ACR       0.1184
     26 C5C       -17.8030   -8.8172   -3.2017 C.3         1 ACR       0.1134
     27 C6C       -17.5010   -7.7858   -2.0865 C.3         1 ACR       0.0730
     28 O2C       -20.0599  -12.0058   -4.9399 O.3         1 ACR      -0.3841
     29 O3C       -20.7813   -9.3034   -5.5543 O.3         1 ACR      -0.3864
     30 O4C       -18.8733   -7.1741   -4.8502 O.3         1 ACR      -0.3401
     31 O5C       -18.0256  -10.0839   -2.5312 O.3         1 ACR      -0.3405
     32 O6C       -17.1363   -6.5145   -2.6167 O.3         1 ACR      -0.3924
     33 C1D       -14.0235  -13.2767   -4.4257 C.3         1 ACR       0.1854
     34 C2D       -14.4363  -12.1496   -5.4106 C.3         1 ACR       0.1339
     35 C3D       -15.8507  -12.4315   -5.9869 C.3         1 ACR       0.1144
     36 C4D       -16.8998  -12.7201   -4.8673 C.3         1 ACR       0.1184
     37 C5D       -16.3660  -13.7889   -3.8560 C.3         1 ACR       0.1134
     38 C6D       -16.5143  -15.2552   -4.3542 C.3         1 ACR       0.0730
     39 O1D       -12.7968  -12.9461   -3.7818 O.3         1 ACR      -0.3649
     40 O2D       -14.3877  -10.8762   -4.7662 O.3         1 ACR      -0.3841
     41 O3D       -15.7431  -13.5032   -6.9287 O.3         1 ACR      -0.3864
     42 O4D       -17.1715  -11.4507   -4.2270 O.3         1 ACR      -0.3401
     43 O5D       -15.0229  -13.4749   -3.4046 O.3         1 ACR      -0.3407
     44 O6D       -15.8929  -16.1548   -3.4421 O.3         1 ACR      -0.3924
     45 H1        -18.9195   -5.0426  -11.0039 H           1 ACR       0.0950
     46 H2        -20.4806   -5.3943  -12.8374 H           1 ACR       0.0694
     47 H3        -22.0580   -7.1801  -10.9194 H           1 ACR       0.0671
     48 H4        -20.8417   -8.1944  -13.5020 H           1 ACR       0.0769
     49 H5        -19.0520  -10.1294  -12.7935 H           1 ACR       0.0706
     50 H6        -17.9181   -9.6164  -11.5594 H           1 ACR       0.0706
     51 H7        -17.8123   -7.0516  -11.3376 H           1 ACR       0.0299
     52 H8        -22.3386   -4.9547  -10.9066 H           1 ACR       0.2103
     53 H9        -23.1835   -7.6389  -12.8797 H           1 ACR       0.2102
     54 H10       -21.3973  -10.0006  -12.6668 H           1 ACR       0.2130
     55 H11       -17.9863   -9.1546  -14.2640 H           1 ACR       0.2125
     56 H12       -16.8453   -7.1439   -5.2978 H           1 ACR       0.0938
     57 H13       -16.7829   -5.3873   -6.8489 H           1 ACR       0.0672
     58 H14       -19.8454   -5.3086   -6.8979 H           1 ACR       0.0679
     59 H15       -17.8534   -6.3201   -9.0020 H           1 ACR       0.0903
     60 H16       -19.9083   -7.8024   -7.2887 H           1 ACR       0.0652
     61 H17       -18.9526   -9.9001   -8.1976 H           1 ACR       0.0257
     62 H18       -18.0139   -8.9751   -9.3770 H           1 ACR       0.0257
     63 H19       -19.7938   -8.9741   -9.4364 H           1 ACR       0.0257
     64 H20       -20.5518   -6.9455   -9.4774 H           1 ACR       0.2029
     65 H21       -20.4714   -5.3292   -9.1950 H           1 ACR       0.2029
     66 H22       -17.5511   -3.7190   -5.7039 H           1 ACR       0.2101
     67 H23       -18.9564   -3.3487   -7.2892 H           1 ACR       0.2102
     68 H24       -18.4818  -12.0680   -2.7140 H           1 ACR       0.0938
     69 H25       -20.4383  -10.7707   -3.3655 H           1 ACR       0.0671
     70 H26       -18.8039   -9.8159   -5.7441 H           1 ACR       0.0648
     71 H27       -19.8470   -8.1928   -3.3966 H           1 ACR       0.0651
     72 H28       -16.9090   -8.9150   -3.8194 H           1 ACR       0.0647
     73 H29       -16.6718   -8.1438   -1.4698 H           1 ACR       0.0584
     74 H30       -18.3752   -7.6597   -1.4417 H           1 ACR       0.0584
     75 H31       -20.9570  -11.7779   -5.2539 H           1 ACR       0.2101
     76 H32       -21.4030   -9.1742   -4.8136 H           1 ACR       0.2100
     77 H33       -16.9682   -5.9465   -1.8348 H           1 ACR       0.2095
     78 H34       -13.8611  -14.2103   -4.9725 H           1 ACR       0.0935
     79 H35       -13.7144  -12.1118   -6.2297 H           1 ACR       0.0671
     80 H36       -16.1801  -11.5602   -6.5593 H           1 ACR       0.0648
     81 H37       -17.8111  -13.0855   -5.3442 H           1 ACR       0.0651
     82 H38       -16.9836  -13.7335   -2.9588 H           1 ACR       0.0647
     83 H39       -16.0613  -15.3907   -5.3358 H           1 ACR       0.0584
     84 H40       -17.5728  -15.5150   -4.4250 H           1 ACR       0.0584
     85 H41       -12.1222  -12.9602   -4.4925 H           1 ACR       0.2126
     86 H42       -15.0250  -10.9253   -4.0240 H           1 ACR       0.2101
     87 H43       -16.5854  -14.0030   -6.8788 H           1 ACR       0.2100
     88 H44       -16.0434  -17.0458   -3.8211 H           1 ACR       0.2095
@<TRIPOS>BOND
     1     1     2   1
     2     1     7   1
     3    18     1   1
     4     2     3   1
     5     2     8   1
     6     3     4   1
     7     3     9   1
     8     5     4   1
     9     4    10   1
    10     5     6   1
    11     7     5   2
    12     6    11   1
    13    12    13   1
    14    12    21   1
    15    30    12   1
    16    13    14   1
    17    13    19   1
    18    14    15   1
    19    14    20   1
    20    16    15   1
    21    15    18   1
    22    16    17   1
    23    21    16   1
    24    22    23   1
    25    22    31   1
    26    42    22   1
    27    23    24   1
    28    23    28   1
    29    24    25   1
    30    24    29   1
    31    26    25   1
    32    25    30   1
    33    26    27   1
    34    31    26   1
    35    27    32   1
    36    34    33   1
    37    33    39   1
    38    33    43   1
    39    35    34   1
    40    34    40   1
    41    36    35   1
    42    35    41   1
    43    36    37   1
    44    36    42   1
    45    37    38   1
    46    37    43   1
    47    38    44   1
    48     1    45   1
    49     2    46   1
    50     3    47   1
    51     4    48   1
    52     6    49   1
    53     6    50   1
    54     7    51   1
    55     8    52   1
    56     9    53   1
    57    10    54   1
    58    11    55   1
    59    12    56   1
    60    13    57   1
    61    14    58   1
    62    15    59   1
    63    16    60   1
    64    17    61   1
    65    17    62   1
    66    17    63   1
    67    18    64   1
    68    18    65   1
    69    19    66   1
    70    20    67   1
    71    22    68   1
    72    23    69   1
    73    24    70   1
    74    25    71   1
    75    26    72   1
    76    27    73   1
    77    27    74   1
    78    28    75   1
    79    29    76   1
    80    32    77   1
    81    33    78   1
    82    34    79   1
    83    35    80   1
    84    36    81   1
    85    37    82   1
    86    38    83   1
    87    38    84   1
    88    39    85   1
    89    40    86   1
    90    41    87   1
    91    44    88   1
@<TRIPOS>SUBSTRUCTURE
     1  ACR      1

