@<TRIPOS>MOLECULE
2qmj_ligand_080
    88    91
SMALL
GAST_HUCK
****
This file was generated by PARSER (from files_GN.cpp)

@<TRIPOS>ATOM
      1 C1A       -20.6795   -7.4439   -9.6320 C.3         1 ACR       0.0141
      2 C2A       -20.1010   -8.9009   -9.7569 C.3         1 ACR       0.1303
      3 C3A       -18.9980   -8.9179  -10.8311 C.3         1 ACR       0.1215
      4 C4A       -19.6305   -8.5297  -12.1964 C.3         1 ACR       0.1112
      5 C5A       -20.5781   -7.4042  -12.1297 C.2         1 ACR      -0.0200
      6 C6A       -21.0971   -6.8446  -13.3742 C.3         1 ACR       0.0719
      7 C7A       -21.0313   -6.9189  -10.9475 C.2         1 ACR      -0.0543
      8 O2A       -19.6647   -9.4866   -8.5307 O.3         1 ACR      -0.3821
      9 O3A       -18.3845  -10.2009  -10.9196 O.3         1 ACR      -0.3843
     10 O4A       -18.5521   -8.2755  -13.1058 O.3         1 ACR      -0.3780
     11 O6A       -22.5174   -6.6696  -13.3401 O.3         1 ACR      -0.3839
     12 C1B       -17.7952   -6.0287   -5.1393 C.3         1 ACR       0.1886
     13 C2B       -17.0217   -5.6981   -6.4483 C.3         1 ACR       0.1370
     14 C3B       -17.9984   -5.4656   -7.6400 C.3         1 ACR       0.1304
     15 C4B       -19.0166   -6.6425   -7.7831 C.3         1 ACR       0.0341
     16 C5B       -19.7565   -6.7534   -6.4046 C.3         1 ACR       0.1038
     17 C6B       -20.8874   -7.7954   -6.2061 C.3         1 ACR      -0.0332
     18 N4B       -19.8597   -6.3824   -8.9773 N.4         1 ACR       0.2433
     19 O2B       -16.1437   -4.5802   -6.2547 O.3         1 ACR      -0.3840
     20 O3B       -17.2440   -5.2831   -8.8348 O.3         1 ACR      -0.3834
     21 O5B       -18.7668   -7.0615   -5.3897 O.3         1 ACR      -0.3401
     22 C1C       -21.0927   -4.0278   -1.3504 C.3         1 ACR       0.1884
     23 C2C       -20.3109   -5.3733   -1.2613 C.3         1 ACR       0.1341
     24 C3C       -19.0545   -5.3144   -2.1686 C.3         1 ACR       0.1144
     25 C4C       -19.4874   -4.9878   -3.6305 C.3         1 ACR       0.1184
     26 C5C       -20.3241   -3.6708   -3.6631 C.3         1 ACR       0.1134
     27 C6C       -20.9394   -3.4391   -5.0760 C.3         1 ACR       0.0730
     28 O2C       -19.9309   -5.7103    0.0690 O.3         1 ACR      -0.3841
     29 O3C       -18.3567   -6.5581   -2.0970 O.3         1 ACR      -0.3864
     30 O4C       -18.3776   -4.8347   -4.5582 O.3         1 ACR      -0.3401
     31 O5C       -21.4269   -3.7345   -2.7286 O.3         1 ACR      -0.3405
     32 O6C       -21.4572   -2.1166   -5.2165 O.3         1 ACR      -0.3924
     33 C1D       -19.1787   -0.1809    1.4077 C.3         1 ACR       0.1854
     34 C2D       -18.2251   -1.1809    0.7031 C.3         1 ACR       0.1339
     35 C3D       -18.7126   -2.6362    0.9462 C.3         1 ACR       0.1144
     36 C4D       -20.2287   -2.8293    0.6423 C.3         1 ACR       0.1184
     37 C5D       -21.1143   -1.6566    1.1853 C.3         1 ACR       0.1134
     38 C6D       -21.5313   -1.8092    2.6767 C.3         1 ACR       0.0730
     39 O1D       -18.8079    1.1665    1.1324 O.3         1 ACR      -0.3649
     40 O2D       -18.1368   -0.8753   -0.6927 O.3         1 ACR      -0.3841
     41 O3D       -18.4401   -3.0219    2.2960 O.3         1 ACR      -0.3864
     42 O4D       -20.3684   -2.9090   -0.7937 O.3         1 ACR      -0.3401
     43 O5D       -20.5246   -0.3645    0.9319 O.3         1 ACR      -0.3407
     44 O6D       -22.6696   -2.6575    2.8200 O.3         1 ACR      -0.3924
     45 H1        -21.6137   -7.5366   -9.0904 H           1 ACR       0.0950
     46 H2        -20.9123   -9.5524  -10.0998 H           1 ACR       0.0694
     47 H3        -18.2125   -8.2006  -10.5619 H           1 ACR       0.0671
     48 H4        -20.1779   -9.3978  -12.5758 H           1 ACR       0.0769
     49 H5        -20.8710   -7.4805  -14.2445 H           1 ACR       0.0706
     50 H6        -20.6344   -5.8614  -13.5529 H           1 ACR       0.0706
     51 H7        -21.6428   -6.1334  -10.9620 H           1 ACR       0.0299
     52 H8        -18.6897   -9.6070   -8.6331 H           1 ACR       0.2103
     53 H9        -17.5171  -10.0612  -11.3608 H           1 ACR       0.2102
     54 H10       -18.7325   -8.8393  -13.8822 H           1 ACR       0.2130
     55 H11       -22.9029   -7.5728  -13.4224 H           1 ACR       0.2125
     56 H12       -17.0702   -6.4238   -4.4274 H           1 ACR       0.0938
     57 H13       -16.3914   -6.5609   -6.6840 H           1 ACR       0.0672
     58 H14       -18.5377   -4.5183   -7.4667 H           1 ACR       0.0679
     59 H15       -18.4111   -7.5316   -7.9439 H           1 ACR       0.0903
     60 H16       -20.2268   -5.7867   -6.2041 H           1 ACR       0.0652
     61 H17       -21.1666   -7.8418   -5.1533 H           1 ACR       0.0257
     62 H18       -20.5777   -8.8011   -6.5338 H           1 ACR       0.0257
     63 H19       -21.7726   -7.4969   -6.7544 H           1 ACR       0.0257
     64 H20       -20.4967   -5.6201   -8.7263 H           1 ACR       0.2029
     65 H21       -19.2280   -6.0347   -9.7022 H           1 ACR       0.2029
     66 H22       -16.6724   -3.7860   -6.4705 H           1 ACR       0.2101
     67 H23       -16.5033   -5.9248   -8.7801 H           1 ACR       0.2102
     68 H24       -22.0492   -4.1478   -0.8370 H           1 ACR       0.0938
     69 H25       -20.9639   -6.1791   -1.6249 H           1 ACR       0.0671
     70 H26       -18.3675   -4.5355   -1.8169 H           1 ACR       0.0648
     71 H27       -20.1584   -5.7841   -3.9641 H           1 ACR       0.0651
     72 H28       -19.6711   -2.8142   -3.4200 H           1 ACR       0.0647
     73 H29       -21.7537   -4.1497   -5.2410 H           1 ACR       0.0584
     74 H30       -20.1861   -3.5893   -5.8606 H           1 ACR       0.0584
     75 H31       -20.7647   -5.9714    0.5093 H           1 ACR       0.2101
     76 H32       -18.9665   -7.2312   -2.4674 H           1 ACR       0.2100
     77 H33       -20.7525   -1.6568   -5.7165 H           1 ACR       0.2095
     78 H34       -19.1325   -0.3106    2.4953 H           1 ACR       0.0935
     79 H35       -17.2172   -1.0607    1.1137 H           1 ACR       0.0671
     80 H36       -18.1337   -3.3122    0.3144 H           1 ACR       0.0648
     81 H37       -20.5501   -3.7669    1.1173 H           1 ACR       0.0651
     82 H38       -22.0490   -1.6592    0.6117 H           1 ACR       0.0647
     83 H39       -21.7978   -0.8290    3.0843 H           1 ACR       0.0584
     84 H40       -20.7178   -2.2123    3.2766 H           1 ACR       0.0584
     85 H41       -18.0644    1.3699    1.7390 H           1 ACR       0.2126
     86 H42       -18.7081   -1.5271   -1.1501 H           1 ACR       0.2101
     87 H43       -17.4624   -3.0581    2.3677 H           1 ACR       0.2100
     88 H44       -22.3555   -3.5580    2.5944 H           1 ACR       0.2095
@<TRIPOS>BOND
     1     1     2   1
     2     1     7   1
     3    18     1   1
     4     2     3   1
     5     2     8   1
     6     3     4   1
     7     3     9   1
     8     5     4   1
     9     4    10   1
    10     5     6   1
    11     7     5   2
    12     6    11   1
    13    12    13   1
    14    12    21   1
    15    30    12   1
    16    13    14   1
    17    13    19   1
    18    14    15   1
    19    14    20   1
    20    16    15   1
    21    15    18   1
    22    16    17   1
    23    21    16   1
    24    22    23   1
    25    22    31   1
    26    42    22   1
    27    23    24   1
    28    23    28   1
    29    24    25   1
    30    24    29   1
    31    26    25   1
    32    25    30   1
    33    26    27   1
    34    31    26   1
    35    27    32   1
    36    34    33   1
    37    33    39   1
    38    33    43   1
    39    35    34   1
    40    34    40   1
    41    36    35   1
    42    35    41   1
    43    36    37   1
    44    36    42   1
    45    37    38   1
    46    37    43   1
    47    38    44   1
    48     1    45   1
    49     2    46   1
    50     3    47   1
    51     4    48   1
    52     6    49   1
    53     6    50   1
    54     7    51   1
    55     8    52   1
    56     9    53   1
    57    10    54   1
    58    11    55   1
    59    12    56   1
    60    13    57   1
    61    14    58   1
    62    15    59   1
    63    16    60   1
    64    17    61   1
    65    17    62   1
    66    17    63   1
    67    18    64   1
    68    18    65   1
    69    19    66   1
    70    20    67   1
    71    22    68   1
    72    23    69   1
    73    24    70   1
    74    25    71   1
    75    26    72   1
    76    27    73   1
    77    27    74   1
    78    28    75   1
    79    29    76   1
    80    32    77   1
    81    33    78   1
    82    34    79   1
    83    35    80   1
    84    36    81   1
    85    37    82   1
    86    38    83   1
    87    38    84   1
    88    39    85   1
    89    40    86   1
    90    41    87   1
    91    44    88   1
@<TRIPOS>SUBSTRUCTURE
     1  ACR      1

