@<TRIPOS>MOLECULE
2qmj_ligand_011
    88    91
SMALL
GAST_HUCK
****
This file was generated by PARSER (from files_GN.cpp)

@<TRIPOS>ATOM
      1 C1A       -19.6611   -6.2334  -10.5481 C.3         1 ACR       0.0141
      2 C2A       -20.7166   -5.8270  -11.6215 C.3         1 ACR       0.1303
      3 C3A       -21.6854   -7.0060  -11.8940 C.3         1 ACR       0.1215
      4 C4A       -20.8920   -8.2840  -12.3141 C.3         1 ACR       0.1112
      5 C5A       -19.5907   -8.4813  -11.6500 C.2         1 ACR      -0.0200
      6 C6A       -18.8306   -9.7124  -11.8830 C.3         1 ACR       0.0719
      7 C7A       -19.0369   -7.5156  -10.8824 C.2         1 ACR      -0.0543
      8 O2A       -21.4100   -4.6412  -11.2343 O.3         1 ACR      -0.3821
      9 O3A       -22.6193   -6.6449  -12.9126 O.3         1 ACR      -0.3843
     10 O4A       -21.7478   -9.4071  -12.0924 O.3         1 ACR      -0.3780
     11 O6A       -17.6948   -9.4654  -12.7073 O.3         1 ACR      -0.3839
     12 C1B       -18.9650   -6.4848   -5.0455 C.3         1 ACR       0.1886
     13 C2B       -18.2901   -5.4191   -5.9474 C.3         1 ACR       0.1370
     14 C3B       -19.1683   -5.1567   -7.2019 C.3         1 ACR       0.1304
     15 C4B       -19.3829   -6.4792   -7.9926 C.3         1 ACR       0.0341
     16 C5B       -19.9983   -7.5519   -7.0397 C.3         1 ACR       0.1038
     17 C6B       -20.0239   -8.9561   -7.6961 C.3         1 ACR      -0.0332
     18 N4B       -20.2666   -6.2643   -9.1815 N.4         1 ACR       0.2433
     19 O2B       -18.0698   -4.2211   -5.2026 O.3         1 ACR      -0.3840
     20 O3B       -18.5722   -4.1778   -8.0482 O.3         1 ACR      -0.3834
     21 O5B       -19.2515   -7.6803   -5.8045 O.3         1 ACR      -0.3401
     22 C1C       -21.8191   -8.9542   -1.9130 C.3         1 ACR       0.1884
     23 C2C       -22.7970   -8.1204   -2.7848 C.3         1 ACR       0.1341
     24 C3C       -21.9994   -7.4071   -3.9084 C.3         1 ACR       0.1144
     25 C4C       -20.8569   -6.5324   -3.3201 C.3         1 ACR       0.1184
     26 C5C       -20.0284   -7.3052   -2.2332 C.3         1 ACR       0.1134
     27 C6C       -19.1475   -6.3514   -1.3851 C.3         1 ACR       0.0730
     28 O2C       -23.8546   -8.9120   -3.3208 O.3         1 ACR      -0.3841
     29 O3C       -22.8700   -6.5908   -4.6945 O.3         1 ACR      -0.3864
     30 O4C       -20.1023   -5.8857   -4.3761 O.3         1 ACR      -0.3401
     31 O5C       -20.8846   -8.0323   -1.3129 O.3         1 ACR      -0.3405
     32 O6C       -18.3637   -7.0896   -0.4528 O.3         1 ACR      -0.3924
     33 C1D       -20.9180  -13.5851   -4.6963 C.3         1 ACR       0.1854
     34 C2D       -21.7474  -12.4815   -5.3963 C.3         1 ACR       0.1339
     35 C3D       -21.5421  -11.1037   -4.7161 C.3         1 ACR       0.1144
     36 C4D       -21.6760  -11.1455   -3.1651 C.3         1 ACR       0.1184
     37 C5D       -20.9054  -12.3725   -2.5810 C.3         1 ACR       0.1134
     38 C6D       -21.2094  -12.6173   -1.0814 C.3         1 ACR       0.0730
     39 O1D       -19.5091  -13.4450   -4.9206 O.3         1 ACR      -0.3649
     40 O2D       -21.4151  -12.3986   -6.7803 O.3         1 ACR      -0.3841
     41 O3D       -22.4965  -10.1985   -5.2730 O.3         1 ACR      -0.3864
     42 O4D       -21.0632   -9.9541   -2.6298 O.3         1 ACR      -0.3401
     43 O5D       -21.2129  -13.5969   -3.2852 O.3         1 ACR      -0.3407
     44 O6D       -22.5791  -12.9505   -0.8579 O.3         1 ACR      -0.3924
     45 H1        -18.8872   -5.4593  -10.5588 H           1 ACR       0.0950
     46 H2        -20.1981   -5.5901  -12.5543 H           1 ACR       0.0694
     47 H3        -22.2554   -7.2106  -10.9825 H           1 ACR       0.0671
     48 H4        -20.6981   -8.2225  -13.3906 H           1 ACR       0.0769
     49 H5        -19.4211  -10.4877  -12.3718 H           1 ACR       0.0706
     50 H6        -18.4893  -10.1202  -10.9286 H           1 ACR       0.0706
     51 H7        -18.1436   -7.6895  -10.4783 H           1 ACR       0.0299
     52 H8        -22.2464   -4.9461  -10.8365 H           1 ACR       0.2103
     53 H9        -23.1546   -7.4512  -13.0736 H           1 ACR       0.2102
     54 H10       -21.5794  -10.0065  -12.8493 H           1 ACR       0.2130
     55 H11       -18.0447   -9.4890  -13.6224 H           1 ACR       0.2125
     56 H12       -18.2241   -6.7604   -4.2934 H           1 ACR       0.0938
     57 H13       -17.3134   -5.7925   -6.2694 H           1 ACR       0.0672
     58 H14       -20.1354   -4.7582   -6.8799 H           1 ACR       0.0679
     59 H15       -18.3948   -6.8318   -8.3009 H           1 ACR       0.0903
     60 H16       -21.0262   -7.2649   -6.8077 H           1 ACR       0.0652
     61 H17       -20.4197   -9.6877   -6.9949 H           1 ACR       0.0257
     62 H18       -19.0154   -9.2641   -7.9801 H           1 ACR       0.0257
     63 H19       -20.6599   -8.9656   -8.5819 H           1 ACR       0.0257
     64 H20       -20.9792   -6.9951   -9.1860 H           1 ACR       0.2029
     65 H21       -20.7584   -5.3837   -9.0276 H           1 ACR       0.2029
     66 H22       -17.5935   -3.6156   -5.8074 H           1 ACR       0.2101
     67 H23       -18.3352   -3.4295   -7.4638 H           1 ACR       0.2102
     68 H24       -22.3725   -9.4267   -1.0985 H           1 ACR       0.0938
     69 H25       -23.2673   -7.3585   -2.1519 H           1 ACR       0.0671
     70 H26       -21.5639   -8.1598   -4.5640 H           1 ACR       0.0648
     71 H27       -21.3577   -5.7087   -2.7994 H           1 ACR       0.0651
     72 H28       -19.3664   -8.0243   -2.7233 H           1 ACR       0.0647
     73 H29       -19.7794   -5.6526   -0.8320 H           1 ACR       0.0584
     74 H30       -18.4722   -5.7790   -2.0269 H           1 ACR       0.0584
     75 H31       -24.3842   -9.1941   -2.5428 H           1 ACR       0.2101
     76 H32       -23.3787   -7.2109   -5.2544 H           1 ACR       0.2100
     77 H33       -17.8522   -6.4144    0.0413 H           1 ACR       0.2095
     78 H34       -21.2188  -14.5582   -5.1000 H           1 ACR       0.0935
     79 H35       -22.8021  -12.7539   -5.3272 H           1 ACR       0.0671
     80 H36       -20.5402  -10.7409   -4.9610 H           1 ACR       0.0648
     81 H37       -22.7332  -11.2196   -2.8984 H           1 ACR       0.0651
     82 H38       -19.8292  -12.1860   -2.6601 H           1 ACR       0.0647
     83 H39       -20.9690  -11.7247   -0.4965 H           1 ACR       0.0584
     84 H40       -20.5899  -13.4386   -0.7086 H           1 ACR       0.0584
     85 H41       -19.3102  -13.9750   -5.7230 H           1 ACR       0.2126
     86 H42       -20.4963  -12.0549   -6.8178 H           1 ACR       0.2101
     87 H43       -22.3850  -10.2525   -6.2472 H           1 ACR       0.2100
     88 H44       -22.7052  -13.8184   -1.2989 H           1 ACR       0.2095
@<TRIPOS>BOND
     1     1     2   1
     2     1     7   1
     3    18     1   1
     4     2     3   1
     5     2     8   1
     6     3     4   1
     7     3     9   1
     8     5     4   1
     9     4    10   1
    10     5     6   1
    11     7     5   2
    12     6    11   1
    13    12    13   1
    14    12    21   1
    15    30    12   1
    16    13    14   1
    17    13    19   1
    18    14    15   1
    19    14    20   1
    20    16    15   1
    21    15    18   1
    22    16    17   1
    23    21    16   1
    24    22    23   1
    25    22    31   1
    26    42    22   1
    27    23    24   1
    28    23    28   1
    29    24    25   1
    30    24    29   1
    31    26    25   1
    32    25    30   1
    33    26    27   1
    34    31    26   1
    35    27    32   1
    36    34    33   1
    37    33    39   1
    38    33    43   1
    39    35    34   1
    40    34    40   1
    41    36    35   1
    42    35    41   1
    43    36    37   1
    44    36    42   1
    45    37    38   1
    46    37    43   1
    47    38    44   1
    48     1    45   1
    49     2    46   1
    50     3    47   1
    51     4    48   1
    52     6    49   1
    53     6    50   1
    54     7    51   1
    55     8    52   1
    56     9    53   1
    57    10    54   1
    58    11    55   1
    59    12    56   1
    60    13    57   1
    61    14    58   1
    62    15    59   1
    63    16    60   1
    64    17    61   1
    65    17    62   1
    66    17    63   1
    67    18    64   1
    68    18    65   1
    69    19    66   1
    70    20    67   1
    71    22    68   1
    72    23    69   1
    73    24    70   1
    74    25    71   1
    75    26    72   1
    76    27    73   1
    77    27    74   1
    78    28    75   1
    79    29    76   1
    80    32    77   1
    81    33    78   1
    82    34    79   1
    83    35    80   1
    84    36    81   1
    85    37    82   1
    86    38    83   1
    87    38    84   1
    88    39    85   1
    89    40    86   1
    90    41    87   1
    91    44    88   1
@<TRIPOS>SUBSTRUCTURE
     1  ACR      1

