@<TRIPOS>MOLECULE
2qmj_ligand_046
    88    91
SMALL
GAST_HUCK
****
This file was generated by PARSER (from files_GN.cpp)

@<TRIPOS>ATOM
      1 C1A       -19.7088   -5.8603  -10.8687 C.3         1 ACR       0.0141
      2 C2A       -20.8786   -5.5683  -11.8505 C.3         1 ACR       0.1303
      3 C3A       -21.7384   -6.8487  -12.0315 C.3         1 ACR       0.1215
      4 C4A       -20.8547   -8.0745  -12.4436 C.3         1 ACR       0.1112
      5 C5A       -19.4461   -8.0584  -11.9970 C.2         1 ACR      -0.0200
      6 C6A       -18.5543   -9.1439  -12.4107 C.3         1 ACR       0.0719
      7 C7A       -18.9270   -6.9931  -11.3470 C.2         1 ACR      -0.0543
      8 O2A       -21.6355   -4.4460  -11.4070 O.3         1 ACR      -0.3821
      9 O3A       -22.7580   -6.6113  -13.0054 O.3         1 ACR      -0.3843
     10 O4A       -21.5089   -9.2579  -11.9794 O.3         1 ACR      -0.3780
     11 O6A       -19.1354  -10.4230  -12.1842 O.3         1 ACR      -0.3839
     12 C1B       -18.2219   -7.0682   -5.7156 C.3         1 ACR       0.1886
     13 C2B       -17.9236   -5.6853   -6.3593 C.3         1 ACR       0.1370
     14 C3B       -18.9880   -5.3247   -7.4265 C.3         1 ACR       0.1304
     15 C4B       -19.1654   -6.4837   -8.4503 C.3         1 ACR       0.0341
     16 C5B       -19.5291   -7.7880   -7.6694 C.3         1 ACR       0.1038
     17 C6B       -19.6706   -9.0363   -8.5722 C.3         1 ACR      -0.0332
     18 N4B       -20.1905   -6.1145   -9.4774 N.4         1 ACR       0.2433
     19 O2B       -17.8917   -4.6824   -5.3461 O.3         1 ACR      -0.3840
     20 O3B       -18.6041   -4.1297   -8.1046 O.3         1 ACR      -0.3834
     21 O5B       -18.4902   -8.0896   -6.7053 O.3         1 ACR      -0.3401
     22 C1C       -17.2509   -6.4702   -1.7354 C.3         1 ACR       0.1884
     23 C2C       -17.0618   -7.9357   -2.2684 C.3         1 ACR       0.1341
     24 C3C       -18.2963   -8.5721   -3.0084 C.3         1 ACR       0.1144
     25 C4C       -19.4124   -7.5783   -3.4923 C.3         1 ACR       0.1184
     26 C5C       -19.6051   -6.4168   -2.4758 C.3         1 ACR       0.1134
     27 C6C       -20.2725   -6.8067   -1.1226 C.3         1 ACR       0.0730
     28 O2C       -15.8748   -8.1054   -3.0374 O.3         1 ACR      -0.3841
     29 O3C       -18.8888   -9.5484   -2.1429 O.3         1 ACR      -0.3864
     30 O4C       -19.3260   -6.9513   -4.7977 O.3         1 ACR      -0.3401
     31 O5C       -18.3372   -5.7424   -2.3459 O.3         1 ACR      -0.3405
     32 O6C       -21.5908   -7.3124   -1.3128 O.3         1 ACR      -0.3924
     33 C1D       -13.9362   -2.9772   -4.3307 C.3         1 ACR       0.1854
     34 C2D       -15.4846   -2.9212   -4.3542 C.3         1 ACR       0.1339
     35 C3D       -16.0769   -3.5610   -3.0639 C.3         1 ACR       0.1144
     36 C4D       -15.5267   -5.0169   -2.8923 C.3         1 ACR       0.1184
     37 C5D       -13.9641   -4.9099   -2.8224 C.3         1 ACR       0.1134
     38 C6D       -13.1989   -6.2472   -2.6655 C.3         1 ACR       0.0730
     39 O1D       -13.4093   -2.0447   -3.3944 O.3         1 ACR      -0.3649
     40 O2D       -15.9391   -1.5796   -4.5381 O.3         1 ACR      -0.3841
     41 O3D       -17.4974   -3.4955   -3.1365 O.3         1 ACR      -0.3864
     42 O4D       -16.0370   -5.6677   -1.6989 O.3         1 ACR      -0.3401
     43 O5D       -13.4640   -4.3059   -4.0368 O.3         1 ACR      -0.3407
     44 O6D       -13.5581   -6.9343   -1.4688 O.3         1 ACR      -0.3924
     45 H1        -19.0695   -4.9719  -10.8581 H           1 ACR       0.0950
     46 H2        -20.4674   -5.2927  -12.8257 H           1 ACR       0.0694
     47 H3        -22.2447   -7.0592  -11.0815 H           1 ACR       0.0671
     48 H4        -20.8319   -8.1186  -13.5353 H           1 ACR       0.0769
     49 H5        -17.5959   -9.1445  -11.8801 H           1 ACR       0.0706
     50 H6        -18.3285   -9.0360  -13.4722 H           1 ACR       0.0706
     51 H7        -17.9494   -6.9709  -11.1440 H           1 ACR       0.0299
     52 H8        -22.4008   -4.8198  -10.9316 H           1 ACR       0.2103
     53 H9        -23.2392   -7.4642  -13.0880 H           1 ACR       0.2102
     54 H10       -22.3576   -9.3011  -12.4691 H           1 ACR       0.2130
     55 H11       -19.8459  -10.4933  -12.8544 H           1 ACR       0.2125
     56 H12       -17.3169   -7.3576   -5.1901 H           1 ACR       0.0938
     57 H13       -16.9366   -5.7227   -6.8368 H           1 ACR       0.0672
     58 H14       -19.9440   -5.1315   -6.9266 H           1 ACR       0.0679
     59 H15       -18.1899   -6.6528   -8.9198 H           1 ACR       0.0903
     60 H16       -20.4848   -7.6462   -7.1512 H           1 ACR       0.0652
     61 H17       -19.8723   -9.9119   -7.9518 H           1 ACR       0.0257
     62 H18       -18.7500   -9.2108   -9.1332 H           1 ACR       0.0257
     63 H19       -20.4982   -8.9219   -9.2724 H           1 ACR       0.0257
     64 H20       -20.8853   -6.8610   -9.5209 H           1 ACR       0.2029
     65 H21       -20.6754   -5.2762   -9.1471 H           1 ACR       0.2029
     66 H22       -17.6302   -3.8595   -5.8002 H           1 ACR       0.2101
     67 H23       -18.3743   -3.4803   -7.4066 H           1 ACR       0.2102
     68 H24       -17.5168   -6.5517   -0.6783 H           1 ACR       0.0938
     69 H25       -16.8479   -8.5459   -1.3898 H           1 ACR       0.0671
     70 H26       -17.9481   -9.1428   -3.8735 H           1 ACR       0.0648
     71 H27       -20.3512   -8.1390   -3.5530 H           1 ACR       0.0651
     72 H28       -20.2780   -5.6831   -2.9295 H           1 ACR       0.0647
     73 H29       -20.3303   -5.9238   -0.4846 H           1 ACR       0.0584
     74 H30       -19.6932   -7.5679   -0.6000 H           1 ACR       0.0584
     75 H31       -16.0004   -7.6070   -3.8687 H           1 ACR       0.2101
     76 H32       -19.5144  -10.0588   -2.7039 H           1 ACR       0.2100
     77 H33       -22.0971   -6.5697   -1.7081 H           1 ACR       0.2095
     78 H34       -13.5636   -2.7041   -5.3199 H           1 ACR       0.0935
     79 H35       -15.8297   -3.4918   -5.2225 H           1 ACR       0.0671
     80 H36       -15.7807   -2.9555   -2.1992 H           1 ACR       0.0648
     81 H37       -15.7903   -5.6001   -3.7812 H           1 ACR       0.0651
     82 H38       -13.6803   -4.2858   -1.9657 H           1 ACR       0.0647
     83 H39       -12.1242   -6.0459   -2.6215 H           1 ACR       0.0584
     84 H40       -13.3810   -6.8912   -3.5284 H           1 ACR       0.0584
     85 H41       -12.4603   -1.9809   -3.6175 H           1 ACR       0.2126
     86 H42       -15.6789   -1.0958   -3.7246 H           1 ACR       0.2101
     87 H43       -17.8107   -3.7803   -2.2513 H           1 ACR       0.2100
     88 H44       -13.3035   -6.3264   -0.7406 H           1 ACR       0.2095
@<TRIPOS>BOND
     1     1     2   1
     2     1     7   1
     3    18     1   1
     4     2     3   1
     5     2     8   1
     6     3     4   1
     7     3     9   1
     8     5     4   1
     9     4    10   1
    10     5     6   1
    11     7     5   2
    12     6    11   1
    13    12    13   1
    14    12    21   1
    15    30    12   1
    16    13    14   1
    17    13    19   1
    18    14    15   1
    19    14    20   1
    20    16    15   1
    21    15    18   1
    22    16    17   1
    23    21    16   1
    24    22    23   1
    25    22    31   1
    26    42    22   1
    27    23    24   1
    28    23    28   1
    29    24    25   1
    30    24    29   1
    31    26    25   1
    32    25    30   1
    33    26    27   1
    34    31    26   1
    35    27    32   1
    36    34    33   1
    37    33    39   1
    38    33    43   1
    39    35    34   1
    40    34    40   1
    41    36    35   1
    42    35    41   1
    43    36    37   1
    44    36    42   1
    45    37    38   1
    46    37    43   1
    47    38    44   1
    48     1    45   1
    49     2    46   1
    50     3    47   1
    51     4    48   1
    52     6    49   1
    53     6    50   1
    54     7    51   1
    55     8    52   1
    56     9    53   1
    57    10    54   1
    58    11    55   1
    59    12    56   1
    60    13    57   1
    61    14    58   1
    62    15    59   1
    63    16    60   1
    64    17    61   1
    65    17    62   1
    66    17    63   1
    67    18    64   1
    68    18    65   1
    69    19    66   1
    70    20    67   1
    71    22    68   1
    72    23    69   1
    73    24    70   1
    74    25    71   1
    75    26    72   1
    76    27    73   1
    77    27    74   1
    78    28    75   1
    79    29    76   1
    80    32    77   1
    81    33    78   1
    82    34    79   1
    83    35    80   1
    84    36    81   1
    85    37    82   1
    86    38    83   1
    87    38    84   1
    88    39    85   1
    89    40    86   1
    90    41    87   1
    91    44    88   1
@<TRIPOS>SUBSTRUCTURE
     1  ACR      1

