@<TRIPOS>MOLECULE
2qmj_ligand_029
    88    91
SMALL
GAST_HUCK
****
This file was generated by PARSER (from files_GN.cpp)

@<TRIPOS>ATOM
      1 C1A       -19.6420   -6.0555  -10.9101 C.3         1 ACR       0.0141
      2 C2A       -20.8384   -5.6758  -11.8313 C.3         1 ACR       0.1303
      3 C3A       -21.7703   -6.9043  -12.0079 C.3         1 ACR       0.1215
      4 C4A       -20.9750   -8.1579  -12.4928 C.3         1 ACR       0.1112
      5 C5A       -19.5527   -8.2392  -12.0892 C.2         1 ACR      -0.0200
      6 C6A       -18.7407   -9.3790  -12.5030 C.3         1 ACR       0.0719
      7 C7A       -18.9459   -7.2087  -11.4576 C.2         1 ACR      -0.0543
      8 O2A       -21.5180   -4.5327  -11.3233 O.3         1 ACR      -0.3821
      9 O3A       -22.8119   -6.5759  -12.9326 O.3         1 ACR      -0.3843
     10 O4A       -21.6867   -9.3213  -12.0598 O.3         1 ACR      -0.3780
     11 O6A       -18.0455   -9.9639  -11.4000 O.3         1 ACR      -0.3839
     12 C1B       -18.2770   -6.4389   -5.5824 C.3         1 ACR       0.1886
     13 C2B       -17.4342   -5.8127   -6.7236 C.3         1 ACR       0.1370
     14 C3B       -18.3639   -5.4199   -7.9015 C.3         1 ACR       0.1304
     15 C4B       -19.1056   -6.6751   -8.4454 C.3         1 ACR       0.0341
     16 C5B       -19.8528   -7.3986   -7.2746 C.3         1 ACR       0.1038
     17 C6B       -20.3089   -8.8342   -7.6588 C.3         1 ACR      -0.0332
     18 N4B       -20.0941   -6.3091   -9.5043 N.4         1 ACR       0.2433
     19 O2B       -16.6566   -4.7028   -6.2592 O.3         1 ACR      -0.3840
     20 O3B       -17.5937   -4.7752   -8.9045 O.3         1 ACR      -0.3834
     21 O5B       -19.0674   -7.5481   -6.0666 O.3         1 ACR      -0.3401
     22 C1C       -20.7127   -4.2476   -1.9460 C.3         1 ACR       0.1884
     23 C2C       -20.6776   -5.7620   -2.3073 C.3         1 ACR       0.1341
     24 C3C       -21.0620   -6.0142   -3.7979 C.3         1 ACR       0.1144
     25 C4C       -20.3019   -5.0641   -4.7719 C.3         1 ACR       0.1184
     26 C5C       -20.3474   -3.5792   -4.2936 C.3         1 ACR       0.1134
     27 C6C       -21.6736   -2.8018   -4.5717 C.3         1 ACR       0.0730
     28 O2C       -19.3869   -6.3164   -2.0237 O.3         1 ACR      -0.3841
     29 O3C       -22.4709   -5.8690   -3.9620 O.3         1 ACR      -0.3864
     30 O4C       -18.9005   -5.4098   -4.7835 O.3         1 ACR      -0.3401
     31 O5C       -19.9411   -3.4952   -2.9096 O.3         1 ACR      -0.3405
     32 O6C       -21.7365   -2.2182   -5.8794 O.3         1 ACR      -0.3924
     33 C1D       -19.1252   -0.9888    2.1105 C.3         1 ACR       0.1854
     34 C2D       -20.1675   -0.5976    1.0250 C.3         1 ACR       0.1339
     35 C3D       -20.8015   -1.8613    0.3768 C.3         1 ACR       0.1144
     36 C4D       -19.6948   -2.8313   -0.1337 C.3         1 ACR       0.1184
     37 C5D       -18.6975   -3.1364    1.0290 C.3         1 ACR       0.1134
     38 C6D       -17.5018   -4.0235    0.5934 C.3         1 ACR       0.0730
     39 O1D       -19.7412   -1.5278    3.2825 O.3         1 ACR      -0.3649
     40 O2D       -21.1825    0.2369    1.5855 O.3         1 ACR      -0.3841
     41 O3D       -21.6593   -1.4367   -0.6838 O.3         1 ACR      -0.3864
     42 O4D       -20.2010   -4.1003   -0.6031 O.3         1 ACR      -0.3401
     43 O5D       -18.1542   -1.9133    1.5790 O.3         1 ACR      -0.3407
     44 O6D       -16.7626   -3.4473   -0.4808 O.3         1 ACR      -0.3924
     45 H1        -18.9666   -5.1974  -10.9212 H           1 ACR       0.0950
     46 H2        -20.4548   -5.3944  -12.8147 H           1 ACR       0.0694
     47 H3        -22.2544   -7.1206  -11.0475 H           1 ACR       0.0671
     48 H4        -20.9879   -8.1555  -13.5872 H           1 ACR       0.0769
     49 H5        -18.0007   -9.0554  -13.2420 H           1 ACR       0.0706
     50 H6        -19.3370  -10.1696  -12.9601 H           1 ACR       0.0706
     51 H7        -17.9623   -7.2592  -11.2883 H           1 ACR       0.0299
     52 H8        -21.9544   -4.8265  -10.5001 H           1 ACR       0.2103
     53 H9        -23.3448   -7.3960  -13.0210 H           1 ACR       0.2102
     54 H10       -21.3998  -10.0398  -12.6612 H           1 ACR       0.2130
     55 H11       -18.7491  -10.2464  -10.7787 H           1 ACR       0.2125
     56 H12       -17.5650   -6.8948   -4.8948 H           1 ACR       0.0938
     57 H13       -16.7138   -6.5634   -7.0740 H           1 ACR       0.0672
     58 H14       -19.0929   -4.6830   -7.5537 H           1 ACR       0.0679
     59 H15       -18.3578   -7.3644   -8.8384 H           1 ACR       0.0903
     60 H16       -20.7442   -6.8217   -7.0279 H           1 ACR       0.0652
     61 H17       -20.8333   -9.2946   -6.8154 H           1 ACR       0.0257
     62 H18       -19.4391   -9.4537   -7.9099 H           1 ACR       0.0257
     63 H19       -20.9856   -8.8135   -8.5163 H           1 ACR       0.0257
     64 H20       -20.7668   -7.0744   -9.5579 H           1 ACR       0.2029
     65 H21       -20.6076   -5.4846   -9.1736 H           1 ACR       0.2029
     66 H22       -17.2164   -3.9059   -6.3516 H           1 ACR       0.2101
     67 H23       -16.8986   -5.4284   -9.1478 H           1 ACR       0.2102
     68 H24       -21.7483   -3.9101   -1.9477 H           1 ACR       0.0938
     69 H25       -21.3900   -6.2907   -1.6587 H           1 ACR       0.0671
     70 H26       -20.8310   -7.0509   -4.0482 H           1 ACR       0.0648
     71 H27       -20.7444   -5.1194   -5.7736 H           1 ACR       0.0651
     72 H28       -19.5752   -3.0356   -4.8461 H           1 ACR       0.0647
     73 H29       -21.7628   -1.9855   -3.8512 H           1 ACR       0.0584
     74 H30       -22.5537   -3.4388   -4.4574 H           1 ACR       0.0584
     75 H31       -18.7483   -5.8074   -2.5673 H           1 ACR       0.2101
     76 H32       -22.8819   -6.5448   -3.3698 H           1 ACR       0.2100
     77 H33       -20.8989   -1.7159   -5.9801 H           1 ACR       0.2095
     78 H34       -18.5806   -0.0909    2.4132 H           1 ACR       0.0935
     79 H35       -19.6506   -0.0215    0.2497 H           1 ACR       0.0671
     80 H36       -21.4182   -2.3724    1.1229 H           1 ACR       0.0648
     81 H37       -19.1260   -2.3219   -0.9143 H           1 ACR       0.0651
     82 H38       -19.2261   -3.6808    1.8227 H           1 ACR       0.0647
     83 H39       -17.8579   -5.0057    0.2769 H           1 ACR       0.0584
     84 H40       -16.8269   -4.1707    1.4415 H           1 ACR       0.0584
     85 H41       -20.3141   -0.8105    3.6280 H           1 ACR       0.2126
     86 H42       -20.7089    1.0220    1.9366 H           1 ACR       0.2101
     87 H43       -22.2144   -2.2090   -0.9143 H           1 ACR       0.2100
     88 H44       -16.4291   -2.5920   -0.1365 H           1 ACR       0.2095
@<TRIPOS>BOND
     1     1     2   1
     2     1     7   1
     3    18     1   1
     4     2     3   1
     5     2     8   1
     6     3     4   1
     7     3     9   1
     8     5     4   1
     9     4    10   1
    10     5     6   1
    11     7     5   2
    12     6    11   1
    13    12    13   1
    14    12    21   1
    15    30    12   1
    16    13    14   1
    17    13    19   1
    18    14    15   1
    19    14    20   1
    20    16    15   1
    21    15    18   1
    22    16    17   1
    23    21    16   1
    24    22    23   1
    25    22    31   1
    26    42    22   1
    27    23    24   1
    28    23    28   1
    29    24    25   1
    30    24    29   1
    31    26    25   1
    32    25    30   1
    33    26    27   1
    34    31    26   1
    35    27    32   1
    36    34    33   1
    37    33    39   1
    38    33    43   1
    39    35    34   1
    40    34    40   1
    41    36    35   1
    42    35    41   1
    43    36    37   1
    44    36    42   1
    45    37    38   1
    46    37    43   1
    47    38    44   1
    48     1    45   1
    49     2    46   1
    50     3    47   1
    51     4    48   1
    52     6    49   1
    53     6    50   1
    54     7    51   1
    55     8    52   1
    56     9    53   1
    57    10    54   1
    58    11    55   1
    59    12    56   1
    60    13    57   1
    61    14    58   1
    62    15    59   1
    63    16    60   1
    64    17    61   1
    65    17    62   1
    66    17    63   1
    67    18    64   1
    68    18    65   1
    69    19    66   1
    70    20    67   1
    71    22    68   1
    72    23    69   1
    73    24    70   1
    74    25    71   1
    75    26    72   1
    76    27    73   1
    77    27    74   1
    78    28    75   1
    79    29    76   1
    80    32    77   1
    81    33    78   1
    82    34    79   1
    83    35    80   1
    84    36    81   1
    85    37    82   1
    86    38    83   1
    87    38    84   1
    88    39    85   1
    89    40    86   1
    90    41    87   1
    91    44    88   1
@<TRIPOS>SUBSTRUCTURE
     1  ACR      1

