@<TRIPOS>MOLECULE
2qmj_ligand_022
    88    91
SMALL
GAST_HUCK
****
This file was generated by PARSER (from files_GN.cpp)

@<TRIPOS>ATOM
      1 C1A       -19.4838   -6.2598  -10.3365 C.3         1 ACR       0.0141
      2 C2A       -20.5813   -5.8425  -11.3634 C.3         1 ACR       0.1303
      3 C3A       -21.5555   -7.0203  -11.6133 C.3         1 ACR       0.1215
      4 C4A       -20.7653   -8.2695  -12.1113 C.3         1 ACR       0.1112
      5 C5A       -19.4476   -8.4847  -11.4910 C.2         1 ACR      -0.0200
      6 C6A       -18.7038   -9.7154  -11.7796 C.3         1 ACR       0.0719
      7 C7A       -18.8781   -7.5439  -10.7010 C.2         1 ACR      -0.0543
      8 O2A       -21.2484   -4.6504  -10.9540 O.3         1 ACR      -0.3821
      9 O3A       -22.5465   -6.6548  -12.5747 O.3         1 ACR      -0.3843
     10 O4A       -21.6146   -9.4051  -11.9185 O.3         1 ACR      -0.3780
     11 O6A       -17.3595   -9.4668  -12.1911 O.3         1 ACR      -0.3839
     12 C1B       -18.3085   -6.0477   -4.9367 C.3         1 ACR       0.1886
     13 C2B       -17.4053   -5.6121   -6.1246 C.3         1 ACR       0.1370
     14 C3B       -18.2815   -5.2917   -7.3657 C.3         1 ACR       0.1304
     15 C4B       -19.0898   -6.5593   -7.7861 C.3         1 ACR       0.0341
     16 C5B       -19.8841   -7.0809   -6.5331 C.3         1 ACR       0.1038
     17 C6B       -20.5286   -8.4679   -6.7802 C.3         1 ACR      -0.0332
     18 N4B       -20.0097   -6.2882   -8.9347 N.4         1 ACR       0.2433
     19 O2B       -16.5269   -4.5605   -5.7470 O.3         1 ACR      -0.3840
     20 O3B       -17.4657   -4.7925   -8.4212 O.3         1 ACR      -0.3834
     21 O5B       -19.0369   -7.2181   -5.3627 O.3         1 ACR      -0.3401
     22 C1C       -19.9648   -2.6364   -1.6176 C.3         1 ACR       0.1884
     23 C2C       -20.9900   -3.1479   -2.6538 C.3         1 ACR       0.1341
     24 C3C       -20.4004   -3.0173   -4.0816 C.3         1 ACR       0.1144
     25 C4C       -19.0052   -3.7006   -4.2220 C.3         1 ACR       0.1184
     26 C5C       -18.0538   -3.3695   -3.0152 C.3         1 ACR       0.1134
     27 C6C       -17.1254   -2.1189   -3.2104 C.3         1 ACR       0.0730
     28 O2C       -21.3555   -4.5010   -2.3850 O.3         1 ACR      -0.3841
     29 O3C       -20.3156   -1.6389   -4.4257 O.3         1 ACR      -0.3864
     30 O4C       -19.2784   -5.1087   -4.4104 O.3         1 ACR      -0.3401
     31 O5C       -18.7328   -3.3735   -1.7321 O.3         1 ACR      -0.3405
     32 O6C       -17.3764   -1.0411   -2.3087 O.3         1 ACR      -0.3924
     33 C1D       -21.7016   -0.7725    3.2001 C.3         1 ACR       0.1854
     34 C2D       -22.4815   -0.4333    1.9032 C.3         1 ACR       0.1339
     35 C3D       -22.2120   -1.4941    0.8005 C.3         1 ACR       0.1144
     36 C4D       -20.6847   -1.7234    0.5995 C.3         1 ACR       0.1184
     37 C5D       -19.9935   -2.0125    1.9682 C.3         1 ACR       0.1134
     38 C6D       -18.4504   -2.1238    1.8509 C.3         1 ACR       0.0730
     39 O1D       -22.2510   -1.9153    3.8575 O.3         1 ACR      -0.3649
     40 O2D       -23.8825   -0.3220    2.1572 O.3         1 ACR      -0.3841
     41 O3D       -22.8123   -1.0593   -0.4160 O.3         1 ACR      -0.3864
     42 O4D       -20.4568   -2.8524   -0.2767 O.3         1 ACR      -0.3401
     43 O5D       -20.2966   -0.9669    2.9228 O.3         1 ACR      -0.3407
     44 O6D       -17.8934   -1.1041    1.0222 O.3         1 ACR      -0.3924
     45 H1        -18.7109   -5.4929  -10.4134 H           1 ACR       0.0950
     46 H2        -20.0953   -5.6013  -12.3124 H           1 ACR       0.0694
     47 H3        -22.0729   -7.2543  -10.6787 H           1 ACR       0.0671
     48 H4        -20.5982   -8.1611  -13.1873 H           1 ACR       0.0769
     49 H5        -19.1679  -10.2958  -12.5761 H           1 ACR       0.0706
     50 H6        -18.6859  -10.3417  -10.8845 H           1 ACR       0.0706
     51 H7        -17.9738   -7.7188  -10.3291 H           1 ACR       0.0299
     52 H8        -21.7263   -4.8767  -10.1348 H           1 ACR       0.2103
     53 H9        -23.0460   -7.4802  -12.7648 H           1 ACR       0.2102
     54 H10       -21.4658   -9.9789  -12.6999 H           1 ACR       0.2130
     55 H11       -16.8096   -9.5586  -11.3854 H           1 ACR       0.2125
     56 H12       -17.6645   -6.3520   -4.1128 H           1 ACR       0.0938
     57 H13       -16.7576   -6.4640   -6.3757 H           1 ACR       0.0672
     58 H14       -18.9869   -4.4906   -7.1238 H           1 ACR       0.0679
     59 H15       -18.3775   -7.3433   -8.0595 H           1 ACR       0.0903
     60 H16       -20.6906   -6.3774   -6.3050 H           1 ACR       0.0652
     61 H17       -21.0498   -8.8051   -5.8838 H           1 ACR       0.0257
     62 H18       -19.7640   -9.2050   -7.0361 H           1 ACR       0.0257
     63 H19       -21.2540   -8.4235   -7.5935 H           1 ACR       0.0257
     64 H20       -20.7391   -7.0028   -8.9241 H           1 ACR       0.2029
     65 H21       -20.4741   -5.3970   -8.7415 H           1 ACR       0.2029
     66 H22       -16.8238   -3.7666   -6.2436 H           1 ACR       0.2101
     67 H23       -16.7366   -5.4420   -8.5251 H           1 ACR       0.2102
     68 H24       -19.7821   -1.5763   -1.8153 H           1 ACR       0.0938
     69 H25       -21.8909   -2.5351   -2.5926 H           1 ACR       0.0671
     70 H26       -21.1006   -3.4701   -4.7927 H           1 ACR       0.0648
     71 H27       -18.5584   -3.3418   -5.1478 H           1 ACR       0.0651
     72 H28       -17.3676   -4.2150   -2.9429 H           1 ACR       0.0647
     73 H29       -17.1768   -1.7267   -4.2262 H           1 ACR       0.0584
     74 H30       -16.0871   -2.4133   -3.0434 H           1 ACR       0.0584
     75 H31       -22.1012   -4.4574   -1.7477 H           1 ACR       0.2101
     76 H32       -20.1598   -1.6229   -5.3915 H           1 ACR       0.2100
     77 H33       -18.0610   -0.4991   -2.7482 H           1 ACR       0.2095
     78 H34       -21.7861    0.0713    3.8886 H           1 ACR       0.0935
     79 H35       -22.1358    0.5414    1.5432 H           1 ACR       0.0671
     80 H36       -22.6801   -2.4395    1.0876 H           1 ACR       0.0648
     81 H37       -20.2519   -0.7989    0.2047 H           1 ACR       0.0651
     82 H38       -20.3542   -2.9685    2.3605 H           1 ACR       0.0647
     83 H39       -18.1769   -3.0931    1.4298 H           1 ACR       0.0584
     84 H40       -18.0007   -2.0477    2.8410 H           1 ACR       0.0584
     85 H41       -21.5692   -2.1831    4.5102 H           1 ACR       0.2126
     86 H42       -24.0348   -0.7946    3.0029 H           1 ACR       0.2101
     87 H43       -23.7631   -0.9420   -0.2061 H           1 ACR       0.2100
     88 H44       -18.0741   -0.2620    1.4897 H           1 ACR       0.2095
@<TRIPOS>BOND
     1     1     2   1
     2     1     7   1
     3    18     1   1
     4     2     3   1
     5     2     8   1
     6     3     4   1
     7     3     9   1
     8     5     4   1
     9     4    10   1
    10     5     6   1
    11     7     5   2
    12     6    11   1
    13    12    13   1
    14    12    21   1
    15    30    12   1
    16    13    14   1
    17    13    19   1
    18    14    15   1
    19    14    20   1
    20    16    15   1
    21    15    18   1
    22    16    17   1
    23    21    16   1
    24    22    23   1
    25    22    31   1
    26    42    22   1
    27    23    24   1
    28    23    28   1
    29    24    25   1
    30    24    29   1
    31    26    25   1
    32    25    30   1
    33    26    27   1
    34    31    26   1
    35    27    32   1
    36    34    33   1
    37    33    39   1
    38    33    43   1
    39    35    34   1
    40    34    40   1
    41    36    35   1
    42    35    41   1
    43    36    37   1
    44    36    42   1
    45    37    38   1
    46    37    43   1
    47    38    44   1
    48     1    45   1
    49     2    46   1
    50     3    47   1
    51     4    48   1
    52     6    49   1
    53     6    50   1
    54     7    51   1
    55     8    52   1
    56     9    53   1
    57    10    54   1
    58    11    55   1
    59    12    56   1
    60    13    57   1
    61    14    58   1
    62    15    59   1
    63    16    60   1
    64    17    61   1
    65    17    62   1
    66    17    63   1
    67    18    64   1
    68    18    65   1
    69    19    66   1
    70    20    67   1
    71    22    68   1
    72    23    69   1
    73    24    70   1
    74    25    71   1
    75    26    72   1
    76    27    73   1
    77    27    74   1
    78    28    75   1
    79    29    76   1
    80    32    77   1
    81    33    78   1
    82    34    79   1
    83    35    80   1
    84    36    81   1
    85    37    82   1
    86    38    83   1
    87    38    84   1
    88    39    85   1
    89    40    86   1
    90    41    87   1
    91    44    88   1
@<TRIPOS>SUBSTRUCTURE
     1  ACR      1

