@<TRIPOS>MOLECULE
2qmj_ligand_002
    88    91
SMALL
GAST_HUCK
****
This file was generated by PARSER (from files_GN.cpp)

@<TRIPOS>ATOM
      1 C1A       -19.5914   -6.1159  -10.7811 C.3         1 ACR       0.0141
      2 C2A       -20.7592   -5.7387  -11.7398 C.3         1 ACR       0.1303
      3 C3A       -21.6953   -6.9621  -11.9284 C.3         1 ACR       0.1215
      4 C4A       -20.8871   -8.2111  -12.4101 C.3         1 ACR       0.1112
      5 C5A       -19.4868   -8.3085  -11.9558 C.2         1 ACR      -0.0200
      6 C6A       -18.6687   -9.4468  -12.3738 C.3         1 ACR       0.0719
      7 C7A       -18.8956   -7.3020  -11.2698 C.2         1 ACR      -0.0543
      8 O2A       -21.4534   -4.5810  -11.2815 O.3         1 ACR      -0.3821
      9 O3A       -22.7304   -6.6481  -12.8646 O.3         1 ACR      -0.3843
     10 O4A       -21.6251   -9.3717  -12.0163 O.3         1 ACR      -0.3780
     11 O6A       -17.8506   -9.9377  -11.3149 O.3         1 ACR      -0.3839
     12 C1B       -18.2793   -6.8929   -5.4711 C.3         1 ACR       0.1886
     13 C2B       -17.9367   -5.5809   -6.2300 C.3         1 ACR       0.1370
     14 C3B       -18.9452   -5.3316   -7.3840 C.3         1 ACR       0.1304
     15 C4B       -19.0333   -6.5700   -8.3216 C.3         1 ACR       0.0341
     16 C5B       -19.3499   -7.8376   -7.4671 C.3         1 ACR       0.1038
     17 C6B       -19.3231   -9.1550   -8.2797 C.3         1 ACR      -0.0332
     18 N4B       -20.0639   -6.3320   -9.3798 N.4         1 ACR       0.2433
     19 O2B       -17.9108   -4.4700   -5.3310 O.3         1 ACR      -0.3840
     20 O3B       -18.5718   -4.1861   -8.1497 O.3         1 ACR      -0.3834
     21 O5B       -18.3842   -7.9950   -6.3952 O.3         1 ACR      -0.3401
     22 C1C       -21.5923   -7.6690   -1.2078 C.3         1 ACR       0.1884
     23 C2C       -20.3517   -6.7558   -1.0353 C.3         1 ACR       0.1341
     24 C3C       -19.8760   -6.2298   -2.4116 C.3         1 ACR       0.1144
     25 C4C       -19.6434   -7.3799   -3.4356 C.3         1 ACR       0.1184
     26 C5C       -20.8582   -8.3668   -3.4479 C.3         1 ACR       0.1134
     27 C6C       -20.5586   -9.6920   -4.1988 C.3         1 ACR       0.0730
     28 O2C       -20.6351   -5.6726   -0.1527 O.3         1 ACR      -0.3841
     29 O3C       -18.6760   -5.4740   -2.2379 O.3         1 ACR      -0.3864
     30 O4C       -19.5143   -6.7517   -4.7358 O.3         1 ACR      -0.3401
     31 O5C       -21.2666   -8.7500   -2.1071 O.3         1 ACR      -0.3405
     32 O6C       -21.7662  -10.3204   -4.6283 O.3         1 ACR      -0.3924
     33 C1D       -26.9508   -7.3907   -1.6873 C.3         1 ACR       0.1854
     34 C2D       -26.1661   -8.4481   -0.8651 C.3         1 ACR       0.1339
     35 C3D       -24.7109   -7.9915   -0.5893 C.3         1 ACR       0.1144
     36 C4D       -24.0030   -7.5273   -1.8939 C.3         1 ACR       0.1184
     37 C5D       -24.8883   -6.4803   -2.6459 C.3         1 ACR       0.1134
     38 C6D       -24.2942   -6.0785   -4.0294 C.3         1 ACR       0.0730
     39 O1D       -27.2958   -6.2433   -0.9118 O.3         1 ACR      -0.3649
     40 O2D       -26.8473   -8.7320    0.3557 O.3         1 ACR      -0.3841
     41 O3D       -24.0062   -9.0853   -0.0050 O.3         1 ACR      -0.3864
     42 O4D       -22.7309   -6.8841   -1.6301 O.3         1 ACR      -0.3401
     43 O5D       -26.2230   -6.9963   -2.8721 O.3         1 ACR      -0.3407
     44 O6D       -24.2079   -4.6599   -4.1527 O.3         1 ACR      -0.3924
     45 H1        -18.8945   -5.2721  -10.7846 H           1 ACR       0.0950
     46 H2        -20.3480   -5.4755  -12.7175 H           1 ACR       0.0694
     47 H3        -22.1800   -7.1799  -10.9711 H           1 ACR       0.0671
     48 H4        -20.8629   -8.1870  -13.5054 H           1 ACR       0.0769
     49 H5        -18.0306   -9.1626  -13.2158 H           1 ACR       0.0706
     50 H6        -19.2797  -10.2863  -12.7014 H           1 ACR       0.0706
     51 H7        -17.9284   -7.3742  -11.0472 H           1 ACR       0.0299
     52 H8        -22.2731   -4.9058  -10.8663 H           1 ACR       0.2103
     53 H9        -23.2199   -7.4889  -13.0045 H           1 ACR       0.2102
     54 H10       -21.5230  -10.0139  -12.7483 H           1 ACR       0.2130
     55 H11       -17.0019   -9.4568  -11.3904 H           1 ACR       0.2125
     56 H12       -17.4447   -7.0967   -4.7947 H           1 ACR       0.0938
     57 H13       -16.9322   -5.6803   -6.6551 H           1 ACR       0.0672
     58 H14       -19.9306   -5.1296   -6.9503 H           1 ACR       0.0679
     59 H15       -18.0444   -6.7152   -8.7666 H           1 ACR       0.0903
     60 H16       -20.3549   -7.7331   -7.0454 H           1 ACR       0.0652
     61 H17       -19.5449  -10.0001   -7.6227 H           1 ACR       0.0257
     62 H18       -18.3389   -9.3129   -8.7246 H           1 ACR       0.0257
     63 H19       -20.0727   -9.1432   -9.0741 H           1 ACR       0.0257
     64 H20       -20.7027   -7.1295   -9.3912 H           1 ACR       0.2029
     65 H21       -20.6184   -5.5158   -9.0962 H           1 ACR       0.2029
     66 H22       -17.5031   -3.7346   -5.8394 H           1 ACR       0.2101
     67 H23       -18.3605   -3.4759   -7.5066 H           1 ACR       0.2102
     68 H24       -21.8095   -8.1060   -0.2320 H           1 ACR       0.0938
     69 H25       -19.5481   -7.3446   -0.5888 H           1 ACR       0.0671
     70 H26       -20.6434   -5.5523   -2.8019 H           1 ACR       0.0648
     71 H27       -18.7510   -7.9431   -3.1360 H           1 ACR       0.0651
     72 H28       -21.7002   -7.8786   -3.9643 H           1 ACR       0.0647
     73 H29       -20.0260  -10.3804   -3.5398 H           1 ACR       0.0584
     74 H30       -19.9459   -9.5064   -5.0808 H           1 ACR       0.0584
     75 H31       -21.3624   -5.1710   -0.5769 H           1 ACR       0.2101
     76 H32       -18.5397   -5.0099   -3.0865 H           1 ACR       0.2100
     77 H33       -22.1204   -9.7463   -5.3362 H           1 ACR       0.2095
     78 H34       -27.8886   -7.8467   -2.0163 H           1 ACR       0.0935
     79 H35       -26.1354   -9.3776   -1.4424 H           1 ACR       0.0671
     80 H36       -24.7200   -7.1611    0.1253 H           1 ACR       0.0648
     81 H37       -23.8738   -8.3952   -2.5520 H           1 ACR       0.0651
     82 H38       -24.9460   -5.5736   -2.0309 H           1 ACR       0.0647
     83 H39       -24.9015   -6.4827   -4.8517 H           1 ACR       0.0584
     84 H40       -23.2689   -6.4583   -4.1424 H           1 ACR       0.0584
     85 H41       -28.0244   -5.8334   -1.4211 H           1 ACR       0.2126
     86 H42       -26.8570   -7.8864    0.8516 H           1 ACR       0.2101
     87 H43       -24.3436   -9.1632    0.9154 H           1 ACR       0.2100
     88 H44       -24.9472   -4.4007   -4.7581 H           1 ACR       0.2095
@<TRIPOS>BOND
     1     1     2   1
     2     1     7   1
     3    18     1   1
     4     2     3   1
     5     2     8   1
     6     3     4   1
     7     3     9   1
     8     5     4   1
     9     4    10   1
    10     5     6   1
    11     7     5   2
    12     6    11   1
    13    12    13   1
    14    12    21   1
    15    30    12   1
    16    13    14   1
    17    13    19   1
    18    14    15   1
    19    14    20   1
    20    16    15   1
    21    15    18   1
    22    16    17   1
    23    21    16   1
    24    22    23   1
    25    22    31   1
    26    42    22   1
    27    23    24   1
    28    23    28   1
    29    24    25   1
    30    24    29   1
    31    26    25   1
    32    25    30   1
    33    26    27   1
    34    31    26   1
    35    27    32   1
    36    34    33   1
    37    33    39   1
    38    33    43   1
    39    35    34   1
    40    34    40   1
    41    36    35   1
    42    35    41   1
    43    36    37   1
    44    36    42   1
    45    37    38   1
    46    37    43   1
    47    38    44   1
    48     1    45   1
    49     2    46   1
    50     3    47   1
    51     4    48   1
    52     6    49   1
    53     6    50   1
    54     7    51   1
    55     8    52   1
    56     9    53   1
    57    10    54   1
    58    11    55   1
    59    12    56   1
    60    13    57   1
    61    14    58   1
    62    15    59   1
    63    16    60   1
    64    17    61   1
    65    17    62   1
    66    17    63   1
    67    18    64   1
    68    18    65   1
    69    19    66   1
    70    20    67   1
    71    22    68   1
    72    23    69   1
    73    24    70   1
    74    25    71   1
    75    26    72   1
    76    27    73   1
    77    27    74   1
    78    28    75   1
    79    29    76   1
    80    32    77   1
    81    33    78   1
    82    34    79   1
    83    35    80   1
    84    36    81   1
    85    37    82   1
    86    38    83   1
    87    38    84   1
    88    39    85   1
    89    40    86   1
    90    41    87   1
    91    44    88   1
@<TRIPOS>SUBSTRUCTURE
     1  ACR      1

