@<TRIPOS>MOLECULE
2qmj_ligand_058
    88    91
SMALL
GAST_HUCK
****
This file was generated by PARSER (from files_GN.cpp)

@<TRIPOS>ATOM
      1 C1A       -19.4784   -6.3128   -9.9389 C.3         1 ACR       0.0141
      2 C2A       -20.1324   -5.6861  -11.2057 C.3         1 ACR       0.1303
      3 C3A       -20.8355   -6.7939  -12.0585 C.3         1 ACR       0.1215
      4 C4A       -19.9659   -8.1009  -12.2120 C.3         1 ACR       0.1112
      5 C5A       -18.7527   -8.1958  -11.3827 C.2         1 ACR      -0.0200
      6 C6A       -17.7204   -9.1971  -11.6815 C.3         1 ACR       0.0719
      7 C7A       -18.4959   -7.2735  -10.4178 C.2         1 ACR      -0.0543
      8 O2A       -21.0458   -4.6389  -10.8799 O.3         1 ACR      -0.3821
      9 O3A       -21.1867   -6.2612  -13.3354 O.3         1 ACR      -0.3843
     10 O4A       -20.8115   -9.2285  -11.9493 O.3         1 ACR      -0.3780
     11 O6A       -18.1874  -10.3603  -12.3437 O.3         1 ACR      -0.3839
     12 C1B       -18.5935   -9.1141   -5.7687 C.3         1 ACR       0.1886
     13 C2B       -18.8891   -9.8900   -7.0738 C.3         1 ACR       0.1370
     14 C3B       -19.1072   -8.9010   -8.2477 C.3         1 ACR       0.1304
     15 C4B       -20.1753   -7.8261   -7.9061 C.3         1 ACR       0.0341
     16 C5B       -19.8294   -7.1449   -6.5471 C.3         1 ACR       0.1038
     17 C6B       -20.9323   -6.1977   -6.0330 C.3         1 ACR      -0.0332
     18 N4B       -20.5059   -6.9173   -9.0430 N.4         1 ACR       0.2433
     19 O2B       -17.8351  -10.8104   -7.3553 O.3         1 ACR      -0.3840
     20 O3B       -19.5086   -9.6209   -9.4065 O.3         1 ACR      -0.3834
     21 O5B       -19.6328   -8.1415   -5.5113 O.3         1 ACR      -0.3401
     22 C1C       -16.8995   -5.4714   -3.6844 C.3         1 ACR       0.1884
     23 C2C       -16.0632   -5.7126   -4.9726 C.3         1 ACR       0.1341
     24 C3C       -15.4520   -7.1503   -5.0026 C.3         1 ACR       0.1144
     25 C4C       -16.4978   -8.2528   -4.6431 C.3         1 ACR       0.1184
     26 C5C       -17.2818   -7.8701   -3.3366 C.3         1 ACR       0.1134
     27 C6C       -16.5245   -8.0724   -1.9964 C.3         1 ACR       0.0730
     28 O2C       -16.8504   -5.4994   -6.1433 O.3         1 ACR      -0.3841
     29 O3C       -14.3304   -7.2383   -4.1295 O.3         1 ACR      -0.3864
     30 O4C       -17.3226   -8.4280   -5.8259 O.3         1 ACR      -0.3401
     31 O5C       -17.8323   -6.5488   -3.4761 O.3         1 ACR      -0.3405
     32 O6C       -16.3867   -9.4526   -1.6628 O.3         1 ACR      -0.3924
     33 C1D       -19.4744   -1.5694   -1.0813 C.3         1 ACR       0.1854
     34 C2D       -18.7496   -2.7405   -0.3816 C.3         1 ACR       0.1339
     35 C3D       -17.8127   -3.4740   -1.3830 C.3         1 ACR       0.1144
     36 C4D       -18.5408   -3.8584   -2.7101 C.3         1 ACR       0.1184
     37 C5D       -19.4105   -2.6805   -3.2574 C.3         1 ACR       0.1134
     38 C6D       -20.4046   -3.1735   -4.3405 C.3         1 ACR       0.0730
     39 O1D       -18.5505   -0.5506   -1.4547 O.3         1 ACR      -0.3649
     40 O2D       -18.0251   -2.2814    0.7597 O.3         1 ACR      -0.3841
     41 O3D       -17.2947   -4.6372   -0.7351 O.3         1 ACR      -0.3864
     42 O4D       -17.6269   -4.2290   -3.7767 O.3         1 ACR      -0.3401
     43 O5D       -20.2046   -2.0569   -2.2228 O.3         1 ACR      -0.3407
     44 O6D       -21.1921   -2.1100   -4.8639 O.3         1 ACR      -0.3924
     45 H1        -18.9678   -5.5216   -9.3891 H           1 ACR       0.0950
     46 H2        -19.3494   -5.2140  -11.8200 H           1 ACR       0.0694
     47 H3        -21.7788   -7.0430  -11.5641 H           1 ACR       0.0671
     48 H4        -19.6501   -8.1638  -13.2635 H           1 ACR       0.0769
     49 H5        -17.2602   -9.5617  -10.7532 H           1 ACR       0.0706
     50 H6        -16.9346   -8.7344  -12.2828 H           1 ACR       0.0706
     51 H7        -17.6086   -7.2740   -9.9839 H           1 ACR       0.0299
     52 H8        -21.8591   -5.0981  -10.5830 H           1 ACR       0.2103
     53 H9        -20.3349   -6.0344  -13.7626 H           1 ACR       0.2102
     54 H10       -20.7702   -9.7995  -12.7513 H           1 ACR       0.2130
     55 H11       -18.4457  -10.0734  -13.2484 H           1 ACR       0.2125
     56 H12       -18.6062   -9.8613   -4.9635 H           1 ACR       0.0938
     57 H13       -19.8145  -10.4773   -6.9279 H           1 ACR       0.0672
     58 H14       -18.1408   -8.4182   -8.4475 H           1 ACR       0.0679
     59 H15       -21.1131   -8.3747   -7.7246 H           1 ACR       0.0903
     60 H16       -18.9245   -6.5603   -6.6654 H           1 ACR       0.0652
     61 H17       -20.7259   -5.9008   -5.0038 H           1 ACR       0.0257
     62 H18       -21.9118   -6.6796   -6.0600 H           1 ACR       0.0257
     63 H19       -20.9658   -5.2914   -6.6457 H           1 ACR       0.0257
     64 H20       -21.1638   -7.4292   -9.6409 H           1 ACR       0.2029
     65 H21       -21.0312   -6.1280   -8.6464 H           1 ACR       0.2029
     66 H22       -17.1898  -10.7125   -6.6223 H           1 ACR       0.2101
     67 H23       -20.4805   -9.7459   -9.3163 H           1 ACR       0.2102
     68 H24       -16.2095   -5.3900   -2.8453 H           1 ACR       0.0938
     69 H25       -15.2414   -4.9853   -5.0054 H           1 ACR       0.0671
     70 H26       -15.0677   -7.3514   -6.0062 H           1 ACR       0.0648
     71 H27       -15.9791   -9.2050   -4.4905 H           1 ACR       0.0651
     72 H28       -18.1546   -8.5165   -3.2406 H           1 ACR       0.0647
     73 H29       -17.0989   -7.5959   -1.1948 H           1 ACR       0.0584
     74 H30       -15.5349   -7.6199   -2.0127 H           1 ACR       0.0584
     75 H31       -16.8728   -4.5238   -6.2765 H           1 ACR       0.2101
     76 H32       -13.5859   -6.8331   -4.6221 H           1 ACR       0.2100
     77 H33       -15.7077   -9.8009   -2.2793 H           1 ACR       0.2095
     78 H34       -20.1963   -1.1241   -0.3936 H           1 ACR       0.0935
     79 H35       -19.5087   -3.4416   -0.0223 H           1 ACR       0.0671
     80 H36       -16.9666   -2.8240   -1.6199 H           1 ACR       0.0648
     81 H37       -19.2241   -4.6830   -2.4808 H           1 ACR       0.0651
     82 H38       -18.7578   -1.9298   -3.7089 H           1 ACR       0.0647
     83 H39       -21.0914   -3.8983   -3.9000 H           1 ACR       0.0584
     84 H40       -19.8725   -3.6539   -5.1657 H           1 ACR       0.0584
     85 H41       -18.7240   -0.3791   -2.4025 H           1 ACR       0.2126
     86 H42       -17.2767   -1.7532    0.4085 H           1 ACR       0.2101
     87 H43       -18.0729   -5.2063   -0.5521 H           1 ACR       0.2100
     88 H44       -20.6470   -1.7320   -5.5813 H           1 ACR       0.2095
@<TRIPOS>BOND
     1     1     2   1
     2     1     7   1
     3    18     1   1
     4     2     3   1
     5     2     8   1
     6     3     4   1
     7     3     9   1
     8     5     4   1
     9     4    10   1
    10     5     6   1
    11     7     5   2
    12     6    11   1
    13    12    13   1
    14    12    21   1
    15    30    12   1
    16    13    14   1
    17    13    19   1
    18    14    15   1
    19    14    20   1
    20    16    15   1
    21    15    18   1
    22    16    17   1
    23    21    16   1
    24    22    23   1
    25    22    31   1
    26    42    22   1
    27    23    24   1
    28    23    28   1
    29    24    25   1
    30    24    29   1
    31    26    25   1
    32    25    30   1
    33    26    27   1
    34    31    26   1
    35    27    32   1
    36    34    33   1
    37    33    39   1
    38    33    43   1
    39    35    34   1
    40    34    40   1
    41    36    35   1
    42    35    41   1
    43    36    37   1
    44    36    42   1
    45    37    38   1
    46    37    43   1
    47    38    44   1
    48     1    45   1
    49     2    46   1
    50     3    47   1
    51     4    48   1
    52     6    49   1
    53     6    50   1
    54     7    51   1
    55     8    52   1
    56     9    53   1
    57    10    54   1
    58    11    55   1
    59    12    56   1
    60    13    57   1
    61    14    58   1
    62    15    59   1
    63    16    60   1
    64    17    61   1
    65    17    62   1
    66    17    63   1
    67    18    64   1
    68    18    65   1
    69    19    66   1
    70    20    67   1
    71    22    68   1
    72    23    69   1
    73    24    70   1
    74    25    71   1
    75    26    72   1
    76    27    73   1
    77    27    74   1
    78    28    75   1
    79    29    76   1
    80    32    77   1
    81    33    78   1
    82    34    79   1
    83    35    80   1
    84    36    81   1
    85    37    82   1
    86    38    83   1
    87    38    84   1
    88    39    85   1
    89    40    86   1
    90    41    87   1
    91    44    88   1
@<TRIPOS>SUBSTRUCTURE
     1  ACR      1

