@<TRIPOS>MOLECULE
2qmj_ligand_007
    88    91
SMALL
GAST_HUCK
****
This file was generated by PARSER (from files_GN.cpp)

@<TRIPOS>ATOM
      1 C1A       -19.6384   -6.2587  -10.6519 C.3         1 ACR       0.0141
      2 C2A       -20.7492   -5.8331  -11.6609 C.3         1 ACR       0.1303
      3 C3A       -21.7436   -7.0045  -11.8742 C.3         1 ACR       0.1215
      4 C4A       -20.9972   -8.2979  -12.3252 C.3         1 ACR       0.1112
      5 C5A       -19.6486   -8.5028  -11.7552 C.2         1 ACR      -0.0200
      6 C6A       -18.9243   -9.7500  -11.9914 C.3         1 ACR       0.0719
      7 C7A       -19.0239   -7.5173  -11.0607 C.2         1 ACR      -0.0543
      8 O2A       -21.3952   -4.6342  -11.2361 O.3         1 ACR      -0.3821
      9 O3A       -22.7207   -6.6371  -12.8486 O.3         1 ACR      -0.3843
     10 O4A       -21.8531   -9.4119  -12.0359 O.3         1 ACR      -0.3780
     11 O6A       -17.7389   -9.5368  -12.7579 O.3         1 ACR      -0.3839
     12 C1B       -18.3375   -6.7885   -5.3226 C.3         1 ACR       0.1886
     13 C2B       -17.9849   -5.5313   -6.1724 C.3         1 ACR       0.1370
     14 C3B       -19.0516   -5.2959   -7.2729 C.3         1 ACR       0.1304
     15 C4B       -19.1860   -6.5756   -8.1440 C.3         1 ACR       0.0341
     16 C5B       -19.5917   -7.7720   -7.2283 C.3         1 ACR       0.1038
     17 C6B       -19.6221   -9.1289   -7.9837 C.3         1 ACR      -0.0332
     18 N4B       -20.1687   -6.3602   -9.2550 N.4         1 ACR       0.2433
     19 O2B       -17.8460   -4.4044   -5.3065 O.3         1 ACR      -0.3840
     20 O3B       -18.6934   -4.1820   -8.0729 O.3         1 ACR      -0.3834
     21 O5B       -18.6469   -7.9387   -6.1478 O.3         1 ACR      -0.3401
     22 C1C       -18.9916   -5.3535   -0.4028 C.3         1 ACR       0.1884
     23 C2C       -18.0939   -6.5575   -0.7971 C.3         1 ACR       0.1341
     24 C3C       -18.0384   -6.7499   -2.3503 C.3         1 ACR       0.1144
     25 C4C       -19.4412   -6.7583   -3.0262 C.3         1 ACR       0.1184
     26 C5C       -20.4018   -5.6962   -2.3804 C.3         1 ACR       0.1134
     27 C6C       -21.8881   -5.9360   -2.7700 C.3         1 ACR       0.0730
     28 O2C       -16.7867   -6.4490   -0.2351 O.3         1 ACR      -0.3841
     29 O3C       -17.3897   -7.9972   -2.5845 O.3         1 ACR      -0.3864
     30 O4C       -19.4194   -6.4292   -4.4386 O.3         1 ACR      -0.3401
     31 O5C       -20.3032   -5.6399   -0.9351 O.3         1 ACR      -0.3405
     32 O6C       -22.7661   -5.7723   -1.6504 O.3         1 ACR      -0.3924
     33 C1D       -15.5605   -2.0301    1.4883 C.3         1 ACR       0.1854
     34 C2D       -16.9466   -2.1500    2.1695 C.3         1 ACR       0.1339
     35 C3D       -17.8088   -3.2541    1.4692 C.3         1 ACR       0.1144
     36 C4D       -17.8682   -3.0427   -0.0669 C.3         1 ACR       0.1184
     37 C5D       -16.4635   -2.7498   -0.6837 C.3         1 ACR       0.1134
     38 C6D       -16.5587   -2.1856   -2.1255 C.3         1 ACR       0.0730
     39 O1D       -14.7684   -3.1964    1.7161 O.3         1 ACR      -0.3649
     40 O2D       -16.8003   -2.4227    3.5639 O.3         1 ACR      -0.3841
     41 O3D       -19.1266   -3.2293    2.0145 O.3         1 ACR      -0.3864
     42 O4D       -18.5911   -4.0352   -0.8401 O.3         1 ACR      -0.3401
     43 O5D       -15.7127   -1.7764    0.0858 O.3         1 ACR      -0.3407
     44 O6D       -16.9227   -0.8022   -2.1049 O.3         1 ACR      -0.3924
     45 H1        -18.8776   -5.4708  -10.6779 H           1 ACR       0.0950
     46 H2        -20.2851   -5.6062  -12.6250 H           1 ACR       0.0694
     47 H3        -22.2742   -7.1882  -10.9354 H           1 ACR       0.0671
     48 H4        -20.8695   -8.2561  -13.4113 H           1 ACR       0.0769
     49 H5        -19.5234  -10.4947  -12.5199 H           1 ACR       0.0706
     50 H6        -18.6366  -10.1922  -11.0316 H           1 ACR       0.0706
     51 H7        -18.0907   -7.6756  -10.7529 H           1 ACR       0.0299
     52 H8        -22.2498   -4.9051  -10.8490 H           1 ACR       0.2103
     53 H9        -23.2150   -7.4618  -13.0426 H           1 ACR       0.2102
     54 H10       -21.7715  -10.0194  -12.8003 H           1 ACR       0.2130
     55 H11       -18.0488   -9.5180  -13.6873 H           1 ACR       0.2125
     56 H12       -17.4497   -7.0481   -4.7535 H           1 ACR       0.0938
     57 H13       -17.0130   -5.7023   -6.6507 H           1 ACR       0.0672
     58 H14       -20.0132   -5.0680   -6.8052 H           1 ACR       0.0679
     59 H15       -18.1987   -6.7993   -8.5511 H           1 ACR       0.0903
     60 H16       -20.5878   -7.6007   -6.8049 H           1 ACR       0.0652
     61 H17       -19.8540   -9.9441   -7.2882 H           1 ACR       0.0257
     62 H18       -18.6480   -9.3317   -8.4426 H           1 ACR       0.0257
     63 H19       -20.3902   -9.1214   -8.7674 H           1 ACR       0.0257
     64 H20       -20.8456   -7.1270   -9.2456 H           1 ACR       0.2029
     65 H21       -20.6871   -5.5072   -9.0373 H           1 ACR       0.2029
     66 H22       -17.4432   -3.7016   -5.8589 H           1 ACR       0.2101
     67 H23       -18.4721   -3.4637   -7.4450 H           1 ACR       0.2102
     68 H24       -19.1036   -5.3226    0.6804 H           1 ACR       0.0938
     69 H25       -18.5492   -7.4566   -0.3520 H           1 ACR       0.0671
     70 H26       -17.4344   -5.9558   -2.7839 H           1 ACR       0.0648
     71 H27       -19.8764   -7.7598   -2.9108 H           1 ACR       0.0651
     72 H28       -20.1405   -4.7056   -2.7760 H           1 ACR       0.0647
     73 H29       -22.0327   -6.9547   -3.1560 H           1 ACR       0.0584
     74 H30       -22.1959   -5.2299   -3.5572 H           1 ACR       0.0584
     75 H31       -16.4140   -7.3644   -0.3063 H           1 ACR       0.2101
     76 H32       -16.4144   -7.8112   -2.5470 H           1 ACR       0.2100
     77 H33       -22.9350   -4.8047   -1.5985 H           1 ACR       0.2095
     78 H34       -15.0227   -1.1838    1.9199 H           1 ACR       0.0935
     79 H35       -17.4613   -1.1845    2.0805 H           1 ACR       0.0671
     80 H36       -17.3739   -4.2189    1.7133 H           1 ACR       0.0648
     81 H37       -18.4602   -2.1305   -0.2027 H           1 ACR       0.0651
     82 H38       -15.8845   -3.6752   -0.7250 H           1 ACR       0.0647
     83 H39       -17.3002   -2.7472   -2.7093 H           1 ACR       0.0584
     84 H40       -15.5918   -2.2837   -2.6265 H           1 ACR       0.0584
     85 H41       -14.4995   -3.5019    0.8204 H           1 ACR       0.2126
     86 H42       -16.3486   -3.2905    3.6097 H           1 ACR       0.2101
     87 H43       -19.0364   -3.5494    2.9418 H           1 ACR       0.2100
     88 H44       -17.4443   -0.6464   -2.9263 H           1 ACR       0.2095
@<TRIPOS>BOND
     1     1     2   1
     2     1     7   1
     3    18     1   1
     4     2     3   1
     5     2     8   1
     6     3     4   1
     7     3     9   1
     8     5     4   1
     9     4    10   1
    10     5     6   1
    11     7     5   2
    12     6    11   1
    13    12    13   1
    14    12    21   1
    15    30    12   1
    16    13    14   1
    17    13    19   1
    18    14    15   1
    19    14    20   1
    20    16    15   1
    21    15    18   1
    22    16    17   1
    23    21    16   1
    24    22    23   1
    25    22    31   1
    26    42    22   1
    27    23    24   1
    28    23    28   1
    29    24    25   1
    30    24    29   1
    31    26    25   1
    32    25    30   1
    33    26    27   1
    34    31    26   1
    35    27    32   1
    36    34    33   1
    37    33    39   1
    38    33    43   1
    39    35    34   1
    40    34    40   1
    41    36    35   1
    42    35    41   1
    43    36    37   1
    44    36    42   1
    45    37    38   1
    46    37    43   1
    47    38    44   1
    48     1    45   1
    49     2    46   1
    50     3    47   1
    51     4    48   1
    52     6    49   1
    53     6    50   1
    54     7    51   1
    55     8    52   1
    56     9    53   1
    57    10    54   1
    58    11    55   1
    59    12    56   1
    60    13    57   1
    61    14    58   1
    62    15    59   1
    63    16    60   1
    64    17    61   1
    65    17    62   1
    66    17    63   1
    67    18    64   1
    68    18    65   1
    69    19    66   1
    70    20    67   1
    71    22    68   1
    72    23    69   1
    73    24    70   1
    74    25    71   1
    75    26    72   1
    76    27    73   1
    77    27    74   1
    78    28    75   1
    79    29    76   1
    80    32    77   1
    81    33    78   1
    82    34    79   1
    83    35    80   1
    84    36    81   1
    85    37    82   1
    86    38    83   1
    87    38    84   1
    88    39    85   1
    89    40    86   1
    90    41    87   1
    91    44    88   1
@<TRIPOS>SUBSTRUCTURE
     1  ACR      1

