@<TRIPOS>MOLECULE
2qmj_ligand_064
    88    91
SMALL
GAST_HUCK
****
This file was generated by PARSER (from files_GN.cpp)

@<TRIPOS>ATOM
      1 C1A       -20.1508   -6.6376  -10.4145 C.3         1 ACR       0.0141
      2 C2A       -21.3354   -7.5780  -10.8265 C.3         1 ACR       0.1303
      3 C3A       -21.3116   -7.9111  -12.3407 C.3         1 ACR       0.1215
      4 C4A       -19.9132   -8.4852  -12.7340 C.3         1 ACR       0.1112
      5 C5A       -18.7792   -7.7072  -12.2265 C.2         1 ACR      -0.0200
      6 C6A       -17.4503   -7.9612  -12.7758 C.3         1 ACR       0.0719
      7 C7A       -18.9194   -6.8651  -11.1729 C.2         1 ACR      -0.0543
      8 O2A       -21.3158   -8.8057  -10.0853 O.3         1 ACR      -0.3821
      9 O3A       -21.6111   -6.7450  -13.1270 O.3         1 ACR      -0.3843
     10 O4A       -19.7452   -9.8235  -12.2576 O.3         1 ACR      -0.3780
     11 O6A       -16.6022   -6.8123  -12.7480 O.3         1 ACR      -0.3839
     12 C1B       -17.2621   -6.9730   -5.6198 C.3         1 ACR       0.1886
     13 C2B       -17.1124   -5.7346   -6.5512 C.3         1 ACR       0.1370
     14 C3B       -18.3953   -5.5359   -7.4142 C.3         1 ACR       0.1304
     15 C4B       -18.7742   -6.8506   -8.1675 C.3         1 ACR       0.0341
     16 C5B       -18.8603   -8.0430   -7.1541 C.3         1 ACR       0.1038
     17 C6B       -19.0453   -9.4301   -7.8210 C.3         1 ACR      -0.0332
     18 N4B       -20.0608   -6.6608   -8.9135 N.4         1 ACR       0.2433
     19 O2B       -16.8386   -4.5883   -5.7439 O.3         1 ACR      -0.3840
     20 O3B       -18.2212   -4.4526   -8.3360 O.3         1 ACR      -0.3834
     21 O5B       -17.6279   -8.1331   -6.3918 O.3         1 ACR      -0.3401
     22 C1C       -20.7225   -6.6170   -2.2111 C.3         1 ACR       0.1884
     23 C2C       -20.2978   -5.3694   -3.0459 C.3         1 ACR       0.1341
     24 C3C       -18.7671   -5.0921   -2.9640 C.3         1 ACR       0.1144
     25 C4C       -17.9650   -6.3864   -3.2624 C.3         1 ACR       0.1184
     26 C5C       -18.4157   -7.5510   -2.3304 C.3         1 ACR       0.1134
     27 C6C       -17.9224   -7.4823   -0.8581 C.3         1 ACR       0.0730
     28 O2C       -20.6770   -5.5203   -4.4159 O.3         1 ACR      -0.3841
     29 O3C       -18.4368   -4.5405   -1.6943 O.3         1 ACR      -0.3864
     30 O4C       -18.2804   -6.8049   -4.6101 O.3         1 ACR      -0.3401
     31 O5C       -19.8430   -7.7407   -2.4253 O.3         1 ACR      -0.3405
     32 O6C       -18.2028   -8.7136   -0.2011 O.3         1 ACR      -0.3924
     33 C1D       -26.0548   -6.0452   -3.3323 C.3         1 ACR       0.1854
     34 C2D       -25.1483   -6.4530   -4.5285 C.3         1 ACR       0.1339
     35 C3D       -23.8925   -7.2066   -4.0283 C.3         1 ACR       0.1144
     36 C4D       -23.1690   -6.4022   -2.9077 C.3         1 ACR       0.1184
     37 C5D       -24.1835   -6.1273   -1.7533 C.3         1 ACR       0.1134
     38 C6D       -23.5508   -5.3535   -0.5729 C.3         1 ACR       0.0730
     39 O1D       -26.7526   -7.1701   -2.7925 O.3         1 ACR      -0.3649
     40 O2D       -25.8512   -7.2542   -5.4772 O.3         1 ACR      -0.3841
     41 O3D       -23.0086   -7.4550   -5.1305 O.3         1 ACR      -0.3864
     42 O4D       -22.0166   -7.1851   -2.5336 O.3         1 ACR      -0.3401
     43 O5D       -25.3028   -5.3850   -2.2814 O.3         1 ACR      -0.3407
     44 O6D       -24.4744   -4.4126   -0.0208 O.3         1 ACR      -0.3924
     45 H1        -20.4453   -5.6078  -10.6774 H           1 ACR       0.0950
     46 H2        -22.2820   -7.0751  -10.5927 H           1 ACR       0.0694
     47 H3        -22.0834   -8.6689  -12.5497 H           1 ACR       0.0671
     48 H4        -19.8796   -8.5126  -13.8336 H           1 ACR       0.0769
     49 H5        -17.4978   -8.3009  -13.8193 H           1 ACR       0.0706
     50 H6        -16.9626   -8.7453  -12.1915 H           1 ACR       0.0706
     51 H7        -18.1505   -6.2737  -10.9498 H           1 ACR       0.0299
     52 H8        -20.6158   -9.3501  -10.5142 H           1 ACR       0.2103
     53 H9        -22.5492   -6.5530  -12.9240 H           1 ACR       0.2102
     54 H10       -20.3240  -10.3650  -12.8257 H           1 ACR       0.2130
     55 H11       -17.0533   -6.1626  -13.3236 H           1 ACR       0.2125
     56 H12       -16.2888   -7.2060   -5.1721 H           1 ACR       0.0938
     57 H13       -16.2528   -5.8921   -7.2165 H           1 ACR       0.0672
     58 H14       -19.2192   -5.2563   -6.7546 H           1 ACR       0.0679
     59 H15       -17.9550   -7.1041   -8.8341 H           1 ACR       0.0903
     60 H16       -19.7101   -7.8702   -6.4831 H           1 ACR       0.0652
     61 H17       -19.2496  -10.1753   -7.0345 H           1 ACR       0.0257
     62 H18       -18.1255   -9.7313   -8.3420 H           1 ACR       0.0257
     63 H19       -19.8963   -9.4305   -8.5144 H           1 ACR       0.0257
     64 H20       -20.6764   -7.4044   -8.5998 H           1 ACR       0.2029
     65 H21       -20.4878   -5.7840   -8.5896 H           1 ACR       0.2029
     66 H22       -17.0844   -3.8203   -6.2906 H           1 ACR       0.2101
     67 H23       -17.3648   -4.6146   -8.7830 H           1 ACR       0.2102
     68 H24       -20.7150   -6.3558   -1.1552 H           1 ACR       0.0938
     69 H25       -20.8248   -4.4830   -2.6641 H           1 ACR       0.0671
     70 H26       -18.5097   -4.3350   -3.7020 H           1 ACR       0.0648
     71 H27       -16.8906   -6.1889   -3.1333 H           1 ACR       0.0651
     72 H28       -17.9707   -8.4657   -2.7433 H           1 ACR       0.0647
     73 H29       -18.4099   -6.6808   -0.3081 H           1 ACR       0.0584
     74 H30       -16.8428   -7.3155   -0.8368 H           1 ACR       0.0584
     75 H31       -20.5568   -4.6333   -4.8139 H           1 ACR       0.2101
     76 H32       -17.4924   -4.2844   -1.7589 H           1 ACR       0.2100
     77 H33       -17.8478   -8.6116    0.7067 H           1 ACR       0.2095
     78 H34       -26.8081   -5.3418   -3.7074 H           1 ACR       0.0935
     79 H35       -24.8252   -5.5458   -5.0380 H           1 ACR       0.0671
     80 H36       -24.1930   -8.1851   -3.6356 H           1 ACR       0.0648
     81 H37       -22.8790   -5.4441   -3.3376 H           1 ACR       0.0651
     82 H38       -24.5400   -7.0777   -1.3522 H           1 ACR       0.0647
     83 H39       -22.6515   -4.8162   -0.8856 H           1 ACR       0.0584
     84 H40       -23.2754   -6.0519    0.2246 H           1 ACR       0.0584
     85 H41       -27.6353   -6.8125   -2.5466 H           1 ACR       0.2126
     86 H42       -26.6400   -6.7383   -5.7366 H           1 ACR       0.2101
     87 H43       -22.8342   -6.5744   -5.5265 H           1 ACR       0.2100
     88 H44       -23.9840   -3.9608    0.6956 H           1 ACR       0.2095
@<TRIPOS>BOND
     1     1     2   1
     2     1     7   1
     3    18     1   1
     4     2     3   1
     5     2     8   1
     6     3     4   1
     7     3     9   1
     8     5     4   1
     9     4    10   1
    10     5     6   1
    11     7     5   2
    12     6    11   1
    13    12    13   1
    14    12    21   1
    15    30    12   1
    16    13    14   1
    17    13    19   1
    18    14    15   1
    19    14    20   1
    20    16    15   1
    21    15    18   1
    22    16    17   1
    23    21    16   1
    24    22    23   1
    25    22    31   1
    26    42    22   1
    27    23    24   1
    28    23    28   1
    29    24    25   1
    30    24    29   1
    31    26    25   1
    32    25    30   1
    33    26    27   1
    34    31    26   1
    35    27    32   1
    36    34    33   1
    37    33    39   1
    38    33    43   1
    39    35    34   1
    40    34    40   1
    41    36    35   1
    42    35    41   1
    43    36    37   1
    44    36    42   1
    45    37    38   1
    46    37    43   1
    47    38    44   1
    48     1    45   1
    49     2    46   1
    50     3    47   1
    51     4    48   1
    52     6    49   1
    53     6    50   1
    54     7    51   1
    55     8    52   1
    56     9    53   1
    57    10    54   1
    58    11    55   1
    59    12    56   1
    60    13    57   1
    61    14    58   1
    62    15    59   1
    63    16    60   1
    64    17    61   1
    65    17    62   1
    66    17    63   1
    67    18    64   1
    68    18    65   1
    69    19    66   1
    70    20    67   1
    71    22    68   1
    72    23    69   1
    73    24    70   1
    74    25    71   1
    75    26    72   1
    76    27    73   1
    77    27    74   1
    78    28    75   1
    79    29    76   1
    80    32    77   1
    81    33    78   1
    82    34    79   1
    83    35    80   1
    84    36    81   1
    85    37    82   1
    86    38    83   1
    87    38    84   1
    88    39    85   1
    89    40    86   1
    90    41    87   1
    91    44    88   1
@<TRIPOS>SUBSTRUCTURE
     1  ACR      1

