@<TRIPOS>MOLECULE
2qmj_ligand_054
    88    91
SMALL
GAST_HUCK
****
This file was generated by PARSER (from files_GN.cpp)

@<TRIPOS>ATOM
      1 C1A       -20.3976   -7.5943  -10.0858 C.3         1 ACR       0.0141
      2 C2A       -19.2878   -7.2372  -11.1241 C.3         1 ACR       0.1303
      3 C3A       -19.6733   -7.7745  -12.5263 C.3         1 ACR       0.1215
      4 C4A       -21.0522   -7.2146  -12.9732 C.3         1 ACR       0.1112
      5 C5A       -22.0539   -7.1012  -11.9042 C.2         1 ACR      -0.0200
      6 C6A       -23.4282   -6.7434  -12.2783 C.3         1 ACR       0.0719
      7 C7A       -21.7307   -7.2510  -10.5967 C.2         1 ACR      -0.0543
      8 O2A       -19.0985   -5.8231  -11.1310 O.3         1 ACR      -0.3821
      9 O3A       -19.7031   -9.2038  -12.4762 O.3         1 ACR      -0.3843
     10 O4A       -20.8801   -5.9150  -13.5451 O.3         1 ACR      -0.3780
     11 O6A       -23.7187   -5.3737  -12.0135 O.3         1 ACR      -0.3839
     12 C1B       -17.0658   -6.9615   -5.6858 C.3         1 ACR       0.1886
     13 C2B       -17.2051   -5.7349   -6.6275 C.3         1 ACR       0.1370
     14 C3B       -18.5916   -5.7074   -7.3286 C.3         1 ACR       0.1304
     15 C4B       -18.8975   -7.0649   -8.0249 C.3         1 ACR       0.0341
     16 C5B       -18.7916   -8.1993   -6.9523 C.3         1 ACR       0.1038
     17 C6B       -18.9867   -9.6171   -7.5381 C.3         1 ACR      -0.0332
     18 N4B       -20.2181   -6.9785   -8.7302 N.4         1 ACR       0.2433
     19 O2B       -16.9963   -4.5357   -5.8836 O.3         1 ACR      -0.3840
     20 O3B       -18.6143   -4.6495   -8.2907 O.3         1 ACR      -0.3834
     21 O5B       -17.4741   -8.1792   -6.3479 O.3         1 ACR      -0.3401
     22 C1C       -20.0232   -7.7580   -1.8586 C.3         1 ACR       0.1884
     23 C2C       -19.3988   -6.3358   -1.9416 C.3         1 ACR       0.1341
     24 C3C       -17.8447   -6.4450   -2.0689 C.3         1 ACR       0.1144
     25 C4C       -17.4449   -7.3937   -3.2411 C.3         1 ACR       0.1184
     26 C5C       -18.1897   -8.7713   -3.1501 C.3         1 ACR       0.1134
     27 C6C       -17.5885   -9.7848   -2.1346 C.3         1 ACR       0.0730
     28 O2C       -19.9009   -5.6116   -3.0722 O.3         1 ACR      -0.3841
     29 O3C       -17.2901   -6.8846   -0.8293 O.3         1 ACR      -0.3864
     30 O4C       -17.8048   -6.7082   -4.4728 O.3         1 ACR      -0.3401
     31 O5C       -19.6134   -8.5663   -2.9732 O.3         1 ACR      -0.3405
     32 O6C       -18.3135  -11.0097   -2.1861 O.3         1 ACR      -0.3924
     33 C1D       -24.1697   -7.0652   -4.8984 C.3         1 ACR       0.1854
     34 C2D       -24.2604   -6.1513   -3.6489 C.3         1 ACR       0.1339
     35 C3D       -22.9403   -6.2493   -2.8367 C.3         1 ACR       0.1144
     36 C4D       -22.5678   -7.7262   -2.5261 C.3         1 ACR       0.1184
     37 C5D       -22.5638   -8.5959   -3.8309 C.3         1 ACR       0.1134
     38 C6D       -22.3617  -10.1195   -3.5920 C.3         1 ACR       0.0730
     39 O1D       -23.2446   -6.5312   -5.8564 O.3         1 ACR      -0.3649
     40 O2D       -24.4718   -4.7875   -4.0160 O.3         1 ACR      -0.3841
     41 O3D       -23.0553   -5.5055   -1.6204 O.3         1 ACR      -0.3864
     42 O4D       -21.4390   -7.8426   -1.6271 O.3         1 ACR      -0.3401
     43 O5D       -23.8207   -8.4184   -4.5286 O.3         1 ACR      -0.3407
     44 O6D       -22.8947  -10.5722   -2.3396 O.3         1 ACR      -0.3924
     45 H1        -20.3965   -8.6771   -9.9490 H           1 ACR       0.0950
     46 H2        -18.3408   -7.7046  -10.8516 H           1 ACR       0.0694
     47 H3        -18.9021   -7.4930  -13.2472 H           1 ACR       0.0671
     48 H4        -21.4409   -7.8677  -13.7613 H           1 ACR       0.0769
     49 H5        -24.1491   -7.3626  -11.7395 H           1 ACR       0.0706
     50 H6        -23.6048   -6.8883  -13.3436 H           1 ACR       0.0706
     51 H7        -22.4618   -7.1876   -9.9224 H           1 ACR       0.0299
     52 H8        -18.4604   -5.6500  -11.8507 H           1 ACR       0.2103
     53 H9        -19.8537   -9.5180  -13.3918 H           1 ACR       0.2102
     54 H10       -20.2950   -6.0479  -14.3203 H           1 ACR       0.2130
     55 H11       -23.4876   -5.2381  -11.0676 H           1 ACR       0.2125
     56 H12       -16.0032   -7.0647   -5.4470 H           1 ACR       0.0938
     57 H13       -16.4224   -5.7991   -7.3909 H           1 ACR       0.0672
     58 H14       -19.3666   -5.5007   -6.5849 H           1 ACR       0.0679
     59 H15       -18.0883   -7.2275   -8.7398 H           1 ACR       0.0903
     60 H16       -19.5504   -8.0510   -6.1802 H           1 ACR       0.0652
     61 H17       -18.7720  -10.3706   -6.7751 H           1 ACR       0.0257
     62 H18       -18.3117   -9.7791   -8.3842 H           1 ACR       0.0257
     63 H19       -20.0165   -9.7599   -7.8664 H           1 ACR       0.0257
     64 H20       -20.9121   -7.3993   -8.1100 H           1 ACR       0.2029
     65 H21       -20.4657   -5.9871   -8.8102 H           1 ACR       0.2029
     66 H22       -17.1299   -3.8076   -6.5281 H           1 ACR       0.2101
     67 H23       -17.8991   -4.8475   -8.9252 H           1 ACR       0.2102
     68 H24       -19.6275   -8.2133   -0.9502 H           1 ACR       0.0938
     69 H25       -19.6557   -5.7681   -1.0287 H           1 ACR       0.0671
     70 H26       -17.4350   -5.4542   -2.2670 H           1 ACR       0.0648
     71 H27       -16.3586   -7.5567   -3.1932 H           1 ACR       0.0651
     72 H28       -18.0869   -9.2670   -4.1214 H           1 ACR       0.0647
     73 H29       -17.6307   -9.4073   -1.1144 H           1 ACR       0.0584
     74 H30       -16.5439   -9.9838   -2.3835 H           1 ACR       0.0584
     75 H31       -19.5478   -4.6919   -2.9674 H           1 ACR       0.2101
     76 H32       -16.3230   -6.9142   -0.9752 H           1 ACR       0.2100
     77 H33       -17.8721  -11.5921   -1.5280 H           1 ACR       0.2095
     78 H34       -25.1495   -7.0983   -5.3875 H           1 ACR       0.0935
     79 H35       -25.1002   -6.4802   -3.0331 H           1 ACR       0.0671
     80 H36       -22.1490   -5.7881   -3.4387 H           1 ACR       0.0648
     81 H37       -23.4020   -8.0971   -1.9253 H           1 ACR       0.0651
     82 H38       -21.7570   -8.2502   -4.4889 H           1 ACR       0.0647
     83 H39       -21.2934  -10.3660   -3.6124 H           1 ACR       0.0584
     84 H40       -22.8311  -10.7009   -4.3905 H           1 ACR       0.0584
     85 H41       -22.9649   -7.3188   -6.3956 H           1 ACR       0.2126
     86 H42       -25.2740   -4.7866   -4.5926 H           1 ACR       0.2101
     87 H43       -23.7996   -5.9204   -1.1326 H           1 ACR       0.2100
     88 H44       -22.4733  -11.4516   -2.2014 H           1 ACR       0.2095
@<TRIPOS>BOND
     1     1     2   1
     2     1     7   1
     3    18     1   1
     4     2     3   1
     5     2     8   1
     6     3     4   1
     7     3     9   1
     8     5     4   1
     9     4    10   1
    10     5     6   1
    11     7     5   2
    12     6    11   1
    13    12    13   1
    14    12    21   1
    15    30    12   1
    16    13    14   1
    17    13    19   1
    18    14    15   1
    19    14    20   1
    20    16    15   1
    21    15    18   1
    22    16    17   1
    23    21    16   1
    24    22    23   1
    25    22    31   1
    26    42    22   1
    27    23    24   1
    28    23    28   1
    29    24    25   1
    30    24    29   1
    31    26    25   1
    32    25    30   1
    33    26    27   1
    34    31    26   1
    35    27    32   1
    36    34    33   1
    37    33    39   1
    38    33    43   1
    39    35    34   1
    40    34    40   1
    41    36    35   1
    42    35    41   1
    43    36    37   1
    44    36    42   1
    45    37    38   1
    46    37    43   1
    47    38    44   1
    48     1    45   1
    49     2    46   1
    50     3    47   1
    51     4    48   1
    52     6    49   1
    53     6    50   1
    54     7    51   1
    55     8    52   1
    56     9    53   1
    57    10    54   1
    58    11    55   1
    59    12    56   1
    60    13    57   1
    61    14    58   1
    62    15    59   1
    63    16    60   1
    64    17    61   1
    65    17    62   1
    66    17    63   1
    67    18    64   1
    68    18    65   1
    69    19    66   1
    70    20    67   1
    71    22    68   1
    72    23    69   1
    73    24    70   1
    74    25    71   1
    75    26    72   1
    76    27    73   1
    77    27    74   1
    78    28    75   1
    79    29    76   1
    80    32    77   1
    81    33    78   1
    82    34    79   1
    83    35    80   1
    84    36    81   1
    85    37    82   1
    86    38    83   1
    87    38    84   1
    88    39    85   1
    89    40    86   1
    90    41    87   1
    91    44    88   1
@<TRIPOS>SUBSTRUCTURE
     1  ACR      1

