@<TRIPOS>MOLECULE
2qmj_ligand_021
    88    91
SMALL
GAST_HUCK
****
This file was generated by PARSER (from files_GN.cpp)

@<TRIPOS>ATOM
      1 C1A       -19.6654   -6.3069  -10.7689 C.3         1 ACR       0.0141
      2 C2A       -20.7740   -5.8258  -11.7521 C.3         1 ACR       0.1303
      3 C3A       -21.7989   -6.9607  -12.0013 C.3         1 ACR       0.1215
      4 C4A       -21.0930   -8.2717  -12.4755 C.3         1 ACR       0.1112
      5 C5A       -19.7430   -8.5105  -11.9347 C.2         1 ACR      -0.0200
      6 C6A       -19.0443   -9.7620  -12.2279 C.3         1 ACR       0.0719
      7 C7A       -19.0833   -7.5671  -11.2242 C.2         1 ACR      -0.0543
      8 O2A       -21.3915   -4.6234  -11.2892 O.3         1 ACR      -0.3821
      9 O3A       -22.7589   -6.5349  -12.9678 O.3         1 ACR      -0.3843
     10 O4A       -21.9706   -9.3545  -12.1602 O.3         1 ACR      -0.3780
     11 O6A       -17.8787   -9.5280  -13.0154 O.3         1 ACR      -0.3839
     12 C1B       -18.4865   -6.5562   -5.3512 C.3         1 ACR       0.1886
     13 C2B       -17.8590   -5.5562   -6.3726 C.3         1 ACR       0.1370
     14 C3B       -18.7439   -5.3484   -7.6410 C.3         1 ACR       0.1304
     15 C4B       -19.1920   -6.7062   -8.2648 C.3         1 ACR       0.0341
     16 C5B       -19.7942   -7.6134   -7.1388 C.3         1 ACR       0.1038
     17 C6B       -20.1323   -9.0434   -7.6251 C.3         1 ACR      -0.0332
     18 N4B       -20.1760   -6.4644   -9.3719 N.4         1 ACR       0.2433
     19 O2B       -17.5359   -4.3285   -5.7278 O.3         1 ACR      -0.3840
     20 O3B       -18.0234   -4.5540   -8.5856 O.3         1 ACR      -0.3834
     21 O5B       -18.8489   -7.7671   -6.0492 O.3         1 ACR      -0.3401
     22 C1C       -21.2955   -4.3577   -1.6558 C.3         1 ACR       0.1884
     23 C2C       -21.9618   -5.4583   -2.5224 C.3         1 ACR       0.1341
     24 C3C       -21.7056   -5.1528   -4.0233 C.3         1 ACR       0.1144
     25 C4C       -20.1930   -4.9106   -4.3400 C.3         1 ACR       0.1184
     26 C5C       -19.4558   -4.0466   -3.2548 C.3         1 ACR       0.1134
     27 C6C       -19.5173   -2.5250   -3.5743 C.3         1 ACR       0.0730
     28 O2C       -21.4399   -6.7469   -2.1838 O.3         1 ACR      -0.3841
     29 O3C       -22.4888   -4.0258   -4.4164 O.3         1 ACR      -0.3864
     30 O4C       -19.6176   -6.2277   -4.4969 O.3         1 ACR      -0.3401
     31 O5C       -19.8770   -4.3462   -1.9074 O.3         1 ACR      -0.3405
     32 O6C       -19.0198   -1.7315   -2.4980 O.3         1 ACR      -0.3924
     33 C1D       -22.1276   -0.6946    1.3700 C.3         1 ACR       0.1854
     34 C2D       -20.6957   -1.2663    1.5561 C.3         1 ACR       0.1339
     35 C3D       -20.4718   -2.4650    0.5920 C.3         1 ACR       0.1144
     36 C4D       -21.6073   -3.5333    0.7077 C.3         1 ACR       0.1184
     37 C5D       -23.0252   -2.8680    0.6924 C.3         1 ACR       0.1134
     38 C6D       -24.1716   -3.8201    1.1251 C.3         1 ACR       0.0730
     39 O1D       -22.3342   -0.0953    0.0818 O.3         1 ACR      -0.3649
     40 O2D       -19.7088   -0.2525    1.3490 O.3         1 ACR      -0.3841
     41 O3D       -19.2054   -3.0809    0.8369 O.3         1 ACR      -0.3864
     42 O4D       -21.4996   -4.6234   -0.2494 O.3         1 ACR      -0.3401
     43 O5D       -23.0932   -1.7393    1.5975 O.3         1 ACR      -0.3407
     44 O6D       -24.3739   -4.8959    0.2093 O.3         1 ACR      -0.3924
     45 H1        -18.8848   -5.5400  -10.7829 H           1 ACR       0.0950
     46 H2        -20.3062   -5.5777  -12.7085 H           1 ACR       0.0694
     47 H3        -22.3377   -7.1472  -11.0672 H           1 ACR       0.0671
     48 H4        -20.9956   -8.2296  -13.5624 H           1 ACR       0.0769
     49 H5        -19.6697  -10.4679  -12.7701 H           1 ACR       0.0706
     50 H6        -18.7466  -10.2442  -11.2940 H           1 ACR       0.0706
     51 H7        -18.1453   -7.7506  -10.9356 H           1 ACR       0.0299
     52 H8        -21.9073   -4.8719  -10.5000 H           1 ACR       0.2103
     53 H9        -23.3882   -7.2836  -13.0516 H           1 ACR       0.2102
     54 H10       -21.7243  -10.0838  -12.7656 H           1 ACR       0.2130
     55 H11       -17.4589  -10.4098  -13.1172 H           1 ACR       0.2125
     56 H12       -17.6859   -6.8312   -4.6553 H           1 ACR       0.0938
     57 H13       -16.9163   -5.9940   -6.7115 H           1 ACR       0.0672
     58 H14       -19.6455   -4.7814   -7.3917 H           1 ACR       0.0679
     59 H15       -18.2956   -7.2128   -8.6350 H           1 ACR       0.0903
     60 H16       -20.7229   -7.1605   -6.7679 H           1 ACR       0.0652
     61 H17       -20.4923   -9.6410   -6.7830 H           1 ACR       0.0257
     62 H18       -19.2451   -9.5273   -8.0466 H           1 ACR       0.0257
     63 H19       -20.9188   -9.0210   -8.3822 H           1 ACR       0.0257
     64 H20       -20.8342   -7.2446   -9.3822 H           1 ACR       0.2029
     65 H21       -20.7136   -5.6268   -9.1248 H           1 ACR       0.2029
     66 H22       -17.2093   -3.7418   -6.4498 H           1 ACR       0.2101
     67 H23       -17.2321   -5.0821   -8.8212 H           1 ACR       0.2102
     68 H24       -21.7222   -3.3899   -1.9257 H           1 ACR       0.0938
     69 H25       -23.0379   -5.4683   -2.3312 H           1 ACR       0.0671
     70 H26       -22.0816   -5.9976   -4.6159 H           1 ACR       0.0648
     71 H27       -20.1540   -4.3908   -5.2993 H           1 ACR       0.0651
     72 H28       -18.4006   -4.3245   -3.2758 H           1 ACR       0.0647
     73 H29       -20.5405   -2.2058   -3.8018 H           1 ACR       0.0584
     74 H30       -18.8948   -2.3189   -4.4519 H           1 ACR       0.0584
     75 H31       -21.6706   -6.8862   -1.2384 H           1 ACR       0.2101
     76 H32       -22.3772   -3.9552   -5.3916 H           1 ACR       0.2100
     77 H33       -18.9736   -0.8183   -2.8686 H           1 ACR       0.2095
     78 H34       -22.2978    0.0750    2.1309 H           1 ACR       0.0935
     79 H35       -20.5898   -1.6139    2.5877 H           1 ACR       0.0671
     80 H36       -20.4628   -2.0609   -0.4224 H           1 ACR       0.0648
     81 H37       -21.4929   -4.0039    1.6913 H           1 ACR       0.0651
     82 H38       -23.2474   -2.5169   -0.3138 H           1 ACR       0.0647
     83 H39       -25.1063   -3.2554    1.1727 H           1 ACR       0.0584
     84 H40       -23.9716   -4.2286    2.1208 H           1 ACR       0.0584
     85 H41       -21.6953    0.6461    0.0338 H           1 ACR       0.2126
     86 H42       -19.7836    0.0006    0.4056 H           1 ACR       0.2101
     87 H43       -18.5386   -2.3825    0.6687 H           1 ACR       0.2100
     88 H44       -23.5540   -5.4254    0.2480 H           1 ACR       0.2095
@<TRIPOS>BOND
     1     1     2   1
     2     1     7   1
     3    18     1   1
     4     2     3   1
     5     2     8   1
     6     3     4   1
     7     3     9   1
     8     5     4   1
     9     4    10   1
    10     5     6   1
    11     7     5   2
    12     6    11   1
    13    12    13   1
    14    12    21   1
    15    30    12   1
    16    13    14   1
    17    13    19   1
    18    14    15   1
    19    14    20   1
    20    16    15   1
    21    15    18   1
    22    16    17   1
    23    21    16   1
    24    22    23   1
    25    22    31   1
    26    42    22   1
    27    23    24   1
    28    23    28   1
    29    24    25   1
    30    24    29   1
    31    26    25   1
    32    25    30   1
    33    26    27   1
    34    31    26   1
    35    27    32   1
    36    34    33   1
    37    33    39   1
    38    33    43   1
    39    35    34   1
    40    34    40   1
    41    36    35   1
    42    35    41   1
    43    36    37   1
    44    36    42   1
    45    37    38   1
    46    37    43   1
    47    38    44   1
    48     1    45   1
    49     2    46   1
    50     3    47   1
    51     4    48   1
    52     6    49   1
    53     6    50   1
    54     7    51   1
    55     8    52   1
    56     9    53   1
    57    10    54   1
    58    11    55   1
    59    12    56   1
    60    13    57   1
    61    14    58   1
    62    15    59   1
    63    16    60   1
    64    17    61   1
    65    17    62   1
    66    17    63   1
    67    18    64   1
    68    18    65   1
    69    19    66   1
    70    20    67   1
    71    22    68   1
    72    23    69   1
    73    24    70   1
    74    25    71   1
    75    26    72   1
    76    27    73   1
    77    27    74   1
    78    28    75   1
    79    29    76   1
    80    32    77   1
    81    33    78   1
    82    34    79   1
    83    35    80   1
    84    36    81   1
    85    37    82   1
    86    38    83   1
    87    38    84   1
    88    39    85   1
    89    40    86   1
    90    41    87   1
    91    44    88   1
@<TRIPOS>SUBSTRUCTURE
     1  ACR      1

