@<TRIPOS>MOLECULE
2qmj_ligand_059
    88    91
SMALL
GAST_HUCK
****
This file was generated by PARSER (from files_GN.cpp)

@<TRIPOS>ATOM
      1 C1A       -20.2557   -7.2085   -9.3437 C.3         1 ACR       0.0141
      2 C2A       -20.5443   -8.6366   -9.8956 C.3         1 ACR       0.1303
      3 C3A       -19.9932   -8.7754  -11.3304 C.3         1 ACR       0.1215
      4 C4A       -20.6157   -7.6759  -12.2448 C.3         1 ACR       0.1112
      5 C5A       -20.8407   -6.3582  -11.6188 C.2         1 ACR      -0.0200
      6 C6A       -21.5241   -5.3284  -12.3985 C.3         1 ACR       0.0719
      7 C7A       -20.6312   -6.1639  -10.2960 C.2         1 ACR      -0.0543
      8 O2A       -20.0297   -9.6561   -9.0415 O.3         1 ACR      -0.3821
      9 O3A       -20.3184  -10.0800  -11.8091 O.3         1 ACR      -0.3843
     10 O4A       -19.8004   -7.5462  -13.4127 O.3         1 ACR      -0.3780
     11 O6A       -21.2831   -4.0135  -11.9059 O.3         1 ACR      -0.3839
     12 C1B       -19.1310   -6.3349   -4.6752 C.3         1 ACR       0.1886
     13 C2B       -18.6071   -5.1557   -5.5496 C.3         1 ACR       0.1370
     14 C3B       -18.9798   -5.3938   -7.0411 C.3         1 ACR       0.1304
     15 C4B       -18.4373   -6.7760   -7.5314 C.3         1 ACR       0.0341
     16 C5B       -18.8176   -7.9253   -6.5308 C.3         1 ACR       0.1038
     17 C6B       -18.0306   -9.2383   -6.7576 C.3         1 ACR      -0.0332
     18 N4B       -18.8129   -7.0525   -8.9574 N.4         1 ACR       0.2433
     19 O2B       -19.1071   -3.9136   -5.0660 O.3         1 ACR      -0.3840
     20 O3B       -18.4898   -4.3289   -7.8660 O.3         1 ACR      -0.3834
     21 O5B       -18.5170   -7.5496   -5.1596 O.3         1 ACR      -0.3401
     22 C1C       -23.7533   -7.1499   -2.9463 C.3         1 ACR       0.1884
     23 C2C       -23.6396   -6.8709   -4.4682 C.3         1 ACR       0.1341
     24 C3C       -22.7893   -5.5958   -4.7197 C.3         1 ACR       0.1144
     25 C4C       -21.4214   -5.6317   -3.9654 C.3         1 ACR       0.1184
     26 C5C       -21.5599   -6.1186   -2.4759 C.3         1 ACR       0.1134
     27 C6C       -21.9343   -4.9964   -1.4589 C.3         1 ACR       0.0730
     28 O2C       -23.0894   -8.0028   -5.1411 O.3         1 ACR      -0.3841
     29 O3C       -23.5290   -4.4313   -4.3387 O.3         1 ACR      -0.3864
     30 O4C       -20.5709   -6.5262   -4.7180 O.3         1 ACR      -0.3401
     31 O5C       -22.4312   -7.2732   -2.3680 O.3         1 ACR      -0.3405
     32 O6C       -21.2349   -5.1656   -0.2148 O.3         1 ACR      -0.3924
     33 C1D       -24.6260   -9.3301    1.4687 C.3         1 ACR       0.1854
     34 C2D       -24.0500  -10.3811    0.4786 C.3         1 ACR       0.1339
     35 C3D       -23.6670   -9.7066   -0.8710 C.3         1 ACR       0.1144
     36 C4D       -24.8427   -8.8713   -1.4385 C.3         1 ACR       0.1184
     37 C5D       -25.3466   -7.8583   -0.3557 C.3         1 ACR       0.1134
     38 C6D       -26.6071   -7.0681   -0.7680 C.3         1 ACR       0.0730
     39 O1D       -23.6066   -8.4710    1.9831 O.3         1 ACR      -0.3649
     40 O2D       -22.9248  -11.0532    1.0455 O.3         1 ACR      -0.3841
     41 O3D       -23.2468  -10.6969   -1.8147 O.3         1 ACR      -0.3864
     42 O4D       -24.5502   -8.3375   -2.7571 O.3         1 ACR      -0.3401
     43 O5D       -25.6797   -8.5606    0.8623 O.3         1 ACR      -0.3407
     44 O6D       -27.4876   -7.8332   -1.5996 O.3         1 ACR      -0.3924
     45 H1        -20.9010   -7.0867   -8.4661 H           1 ACR       0.0950
     46 H2        -21.6234   -8.7759   -9.9324 H           1 ACR       0.0694
     47 H3        -18.8998   -8.6745  -11.3163 H           1 ACR       0.0671
     48 H4        -21.5970   -8.0396  -12.5754 H           1 ACR       0.0769
     49 H5        -22.5986   -5.5084  -12.3401 H           1 ACR       0.0706
     50 H6        -21.2406   -5.3548  -13.4573 H           1 ACR       0.0706
     51 H7        -20.7750   -5.2571   -9.9184 H           1 ACR       0.0299
     52 H8        -20.6335   -9.6524   -8.2658 H           1 ACR       0.2103
     53 H9        -20.3774  -10.0219  -12.7886 H           1 ACR       0.2102
     54 H10       -19.1820   -6.8064  -13.2319 H           1 ACR       0.2130
     55 H11       -20.7553   -3.5568  -12.6010 H           1 ACR       0.2125
     56 H12       -18.7760   -6.1988   -3.6528 H           1 ACR       0.0938
     57 H13       -17.5097   -5.1208   -5.4688 H           1 ACR       0.0672
     58 H14       -20.0709   -5.3861   -7.1202 H           1 ACR       0.0679
     59 H15       -17.3405   -6.6967   -7.5329 H           1 ACR       0.0903
     60 H16       -19.8801   -8.1488   -6.6176 H           1 ACR       0.0652
     61 H17       -18.4537  -10.0307   -6.1286 H           1 ACR       0.0257
     62 H18       -16.9760   -9.0982   -6.4812 H           1 ACR       0.0257
     63 H19       -18.0804   -9.5615   -7.8045 H           1 ACR       0.0257
     64 H20       -18.4075   -6.2929   -9.5260 H           1 ACR       0.2029
     65 H21       -18.3276   -7.9140   -9.2257 H           1 ACR       0.2029
     66 H22       -18.9722   -3.2674   -5.7975 H           1 ACR       0.2101
     67 H23       -17.8133   -3.8648   -7.3316 H           1 ACR       0.2102
     68 H24       -24.2927   -6.3172   -2.4896 H           1 ACR       0.0938
     69 H25       -24.6382   -6.7066   -4.8786 H           1 ACR       0.0671
     70 H26       -22.5955   -5.5165   -5.7915 H           1 ACR       0.0648
     71 H27       -21.0255   -4.6152   -3.9599 H           1 ACR       0.0651
     72 H28       -20.5720   -6.4713   -2.1758 H           1 ACR       0.0647
     73 H29       -23.0046   -5.0077   -1.2349 H           1 ACR       0.0584
     74 H30       -21.6787   -4.0105   -1.8628 H           1 ACR       0.0584
     75 H31       -22.1926   -8.1275   -4.7623 H           1 ACR       0.2101
     76 H32       -23.3459   -3.7848   -5.0607 H           1 ACR       0.2100
     77 H33       -20.3055   -4.9501   -0.4200 H           1 ACR       0.2095
     78 H34       -25.0579   -9.8660    2.3212 H           1 ACR       0.0935
     79 H35       -24.8225  -11.1337    0.2883 H           1 ACR       0.0671
     80 H36       -22.8087   -9.0573   -0.6722 H           1 ACR       0.0648
     81 H37       -25.6532   -9.5795   -1.6204 H           1 ACR       0.0651
     82 H38       -24.5567   -7.1366   -0.1469 H           1 ACR       0.0647
     83 H39       -26.3366   -6.1500   -1.3043 H           1 ACR       0.0584
     84 H40       -27.1741   -6.7716    0.1282 H           1 ACR       0.0584
     85 H41       -24.0965   -7.7317    2.4044 H           1 ACR       0.2126
     86 H42       -22.2600  -10.3518    1.2092 H           1 ACR       0.2101
     87 H43       -24.0313  -11.2613   -1.9852 H           1 ACR       0.2100
     88 H44       -28.0911   -7.1603   -1.9964 H           1 ACR       0.2095
@<TRIPOS>BOND
     1     1     2   1
     2     1     7   1
     3    18     1   1
     4     2     3   1
     5     2     8   1
     6     3     4   1
     7     3     9   1
     8     5     4   1
     9     4    10   1
    10     5     6   1
    11     7     5   2
    12     6    11   1
    13    12    13   1
    14    12    21   1
    15    30    12   1
    16    13    14   1
    17    13    19   1
    18    14    15   1
    19    14    20   1
    20    16    15   1
    21    15    18   1
    22    16    17   1
    23    21    16   1
    24    22    23   1
    25    22    31   1
    26    42    22   1
    27    23    24   1
    28    23    28   1
    29    24    25   1
    30    24    29   1
    31    26    25   1
    32    25    30   1
    33    26    27   1
    34    31    26   1
    35    27    32   1
    36    34    33   1
    37    33    39   1
    38    33    43   1
    39    35    34   1
    40    34    40   1
    41    36    35   1
    42    35    41   1
    43    36    37   1
    44    36    42   1
    45    37    38   1
    46    37    43   1
    47    38    44   1
    48     1    45   1
    49     2    46   1
    50     3    47   1
    51     4    48   1
    52     6    49   1
    53     6    50   1
    54     7    51   1
    55     8    52   1
    56     9    53   1
    57    10    54   1
    58    11    55   1
    59    12    56   1
    60    13    57   1
    61    14    58   1
    62    15    59   1
    63    16    60   1
    64    17    61   1
    65    17    62   1
    66    17    63   1
    67    18    64   1
    68    18    65   1
    69    19    66   1
    70    20    67   1
    71    22    68   1
    72    23    69   1
    73    24    70   1
    74    25    71   1
    75    26    72   1
    76    27    73   1
    77    27    74   1
    78    28    75   1
    79    29    76   1
    80    32    77   1
    81    33    78   1
    82    34    79   1
    83    35    80   1
    84    36    81   1
    85    37    82   1
    86    38    83   1
    87    38    84   1
    88    39    85   1
    89    40    86   1
    90    41    87   1
    91    44    88   1
@<TRIPOS>SUBSTRUCTURE
     1  ACR      1

