@<TRIPOS>MOLECULE
2qmj_ligand_035
    88    91
SMALL
GAST_HUCK
****
This file was generated by PARSER (from files_GN.cpp)

@<TRIPOS>ATOM
      1 C1A       -20.4650   -7.5116   -9.9725 C.3         1 ACR       0.0141
      2 C2A       -19.3022   -7.2232  -10.9721 C.3         1 ACR       0.1303
      3 C3A       -19.6488   -7.7725  -12.3800 C.3         1 ACR       0.1215
      4 C4A       -20.9899   -7.1657  -12.8893 C.3         1 ACR       0.1112
      5 C5A       -22.0303   -6.9928  -11.8636 C.2         1 ACR      -0.0200
      6 C6A       -23.3721   -6.5573  -12.2592 C.3         1 ACR       0.0719
      7 C7A       -21.7663   -7.1631  -10.5481 C.2         1 ACR      -0.0543
      8 O2A       -19.0612   -5.8145  -10.9979 O.3         1 ACR      -0.3821
      9 O3A       -19.7348   -9.1998  -12.3174 O.3         1 ACR      -0.3843
     10 O4A       -20.7338   -5.8958  -13.4857 O.3         1 ACR      -0.3780
     11 O6A       -23.5878   -6.4545  -13.6675 O.3         1 ACR      -0.3839
     12 C1B       -17.4642   -6.8257   -5.3641 C.3         1 ACR       0.1886
     13 C2B       -17.5493   -5.5562   -6.2486 C.3         1 ACR       0.1370
     14 C3B       -18.8726   -5.5544   -7.0695 C.3         1 ACR       0.1304
     15 C4B       -19.0312   -6.8842   -7.8785 C.3         1 ACR       0.0341
     16 C5B       -18.8747   -8.1070   -6.9091 C.3         1 ACR       0.1038
     17 C6B       -18.8324   -9.4896   -7.6031 C.3         1 ACR      -0.0332
     18 N4B       -20.3266   -6.8638   -8.6290 N.4         1 ACR       0.2433
     19 O2B       -17.4463   -4.3958   -5.4199 O.3         1 ACR      -0.3840
     20 O3B       -18.8889   -4.4340   -7.9605 O.3         1 ACR      -0.3834
     21 O5B       -17.6334   -8.0048   -6.1726 O.3         1 ACR      -0.3401
     22 C1C       -18.7477   -6.5270   -0.7452 C.3         1 ACR       0.1884
     23 C2C       -17.3563   -6.8372   -1.3741 C.3         1 ACR       0.1341
     24 C3C       -17.4540   -8.0106   -2.3889 C.3         1 ACR       0.1144
     25 C4C       -18.6333   -7.8356   -3.3941 C.3         1 ACR       0.1184
     26 C5C       -19.9712   -7.5057   -2.6555 C.3         1 ACR       0.1134
     27 C6C       -20.6979   -8.7047   -1.9932 C.3         1 ACR       0.0730
     28 O2C       -16.7924   -5.6935   -2.0169 O.3         1 ACR      -0.3841
     29 O3C       -17.5823   -9.2603   -1.7070 O.3         1 ACR      -0.3864
     30 O4C       -18.4292   -6.7232   -4.2958 O.3         1 ACR      -0.3401
     31 O5C       -19.7700   -6.4074   -1.7495 O.3         1 ACR      -0.3405
     32 O6C       -21.9117   -8.2757   -1.3777 O.3         1 ACR      -0.3924
     33 C1D       -20.4717   -1.7287   -1.2509 C.3         1 ACR       0.1854
     34 C2D       -19.0170   -1.6727   -0.7258 C.3         1 ACR       0.1339
     35 C3D       -18.3956   -3.0979   -0.7310 C.3         1 ACR       0.1144
     36 C4D       -19.2966   -4.0993    0.0470 C.3         1 ACR       0.1184
     37 C5D       -20.7678   -4.0256   -0.4730 C.3         1 ACR       0.1134
     38 C6D       -21.7504   -4.8735    0.3744 C.3         1 ACR       0.0730
     39 O1D       -20.5208   -2.0466   -2.6429 O.3         1 ACR      -0.3649
     40 O2D       -18.2310   -0.7562   -1.4822 O.3         1 ACR      -0.3841
     41 O3D       -17.0955   -3.0552   -0.1473 O.3         1 ACR      -0.3864
     42 O4D       -18.7106   -5.4234    0.1956 O.3         1 ACR      -0.3401
     43 O5D       -21.2484   -2.6599   -0.4695 O.3         1 ACR      -0.3407
     44 O6D       -22.9244   -5.1944   -0.3770 O.3         1 ACR      -0.3924
     45 H1        -20.5016   -8.5901   -9.8106 H           1 ACR       0.0950
     46 H2        -18.3867   -7.7205  -10.6440 H           1 ACR       0.0694
     47 H3        -18.8374   -7.5306  -13.0711 H           1 ACR       0.0671
     48 H4        -21.3716   -7.8247  -13.6746 H           1 ACR       0.0769
     49 H5        -23.5655   -5.5728  -11.8305 H           1 ACR       0.0706
     50 H6        -24.1169   -7.2554  -11.8696 H           1 ACR       0.0706
     51 H7        -22.5291   -7.1009   -9.9072 H           1 ACR       0.0299
     52 H8        -18.5278   -5.6465  -11.7994 H           1 ACR       0.2103
     53 H9        -19.8312   -9.5096  -13.2455 H           1 ACR       0.2102
     54 H10       -20.2462   -6.0878  -14.3160 H           1 ACR       0.2130
     55 H11       -24.5054   -6.1237  -13.7650 H           1 ACR       0.2125
     56 H12       -16.4605   -6.8602   -4.9373 H           1 ACR       0.0938
     57 H13       -16.6971   -5.5526   -6.9358 H           1 ACR       0.0672
     58 H14       -19.7220   -5.4466   -6.3842 H           1 ACR       0.0679
     59 H15       -18.1850   -6.9009   -8.5705 H           1 ACR       0.0903
     60 H16       -19.7121   -8.1171   -6.2049 H           1 ACR       0.0652
     61 H17       -18.4477  -10.2490   -6.9188 H           1 ACR       0.0257
     62 H18       -18.1889   -9.4680   -8.4835 H           1 ACR       0.0257
     63 H19       -19.8373   -9.7992   -7.9047 H           1 ACR       0.0257
     64 H20       -21.0315   -7.2883   -8.0155 H           1 ACR       0.2029
     65 H21       -20.6078   -5.8810   -8.7329 H           1 ACR       0.2029
     66 H22       -17.1946   -3.6656   -6.0198 H           1 ACR       0.2101
     67 H23       -18.6533   -3.6448   -7.4244 H           1 ACR       0.2102
     68 H24       -19.0058   -7.3825   -0.1158 H           1 ACR       0.0938
     69 H25       -16.6644   -7.1125   -0.5724 H           1 ACR       0.0671
     70 H26       -16.5120   -8.0803   -2.9360 H           1 ACR       0.0648
     71 H27       -18.7666   -8.7559   -3.9684 H           1 ACR       0.0651
     72 H28       -20.6712   -7.1351   -3.4063 H           1 ACR       0.0647
     73 H29       -20.0858   -9.1837   -1.2299 H           1 ACR       0.0584
     74 H30       -20.9517   -9.4498   -2.7513 H           1 ACR       0.0584
     75 H31       -17.4270   -5.4497   -2.7224 H           1 ACR       0.2101
     76 H32       -16.7547   -9.3665   -1.1924 H           1 ACR       0.2100
     77 H33       -21.6350   -7.7393   -0.6025 H           1 ACR       0.2095
     78 H34       -20.9286   -0.7457   -1.1342 H           1 ACR       0.0935
     79 H35       -19.0375   -1.2998    0.3046 H           1 ACR       0.0671
     80 H36       -18.2903   -3.4309   -1.7693 H           1 ACR       0.0648
     81 H37       -19.3259   -3.7314    1.0828 H           1 ACR       0.0651
     82 H38       -20.8172   -4.3784   -1.5027 H           1 ACR       0.0647
     83 H39       -22.0473   -4.3267    1.2720 H           1 ACR       0.0584
     84 H40       -21.2914   -5.8141    0.6796 H           1 ACR       0.0584
     85 H41       -21.4600   -2.2147   -2.8425 H           1 ACR       0.2126
     86 H42       -18.6704   -0.6784   -2.3527 H           1 ACR       0.2101
     87 H43       -17.2276   -2.7440    0.7728 H           1 ACR       0.2100
     88 H44       -23.1946   -4.3531   -0.8127 H           1 ACR       0.2095
@<TRIPOS>BOND
     1     1     2   1
     2     1     7   1
     3    18     1   1
     4     2     3   1
     5     2     8   1
     6     3     4   1
     7     3     9   1
     8     5     4   1
     9     4    10   1
    10     5     6   1
    11     7     5   2
    12     6    11   1
    13    12    13   1
    14    12    21   1
    15    30    12   1
    16    13    14   1
    17    13    19   1
    18    14    15   1
    19    14    20   1
    20    16    15   1
    21    15    18   1
    22    16    17   1
    23    21    16   1
    24    22    23   1
    25    22    31   1
    26    42    22   1
    27    23    24   1
    28    23    28   1
    29    24    25   1
    30    24    29   1
    31    26    25   1
    32    25    30   1
    33    26    27   1
    34    31    26   1
    35    27    32   1
    36    34    33   1
    37    33    39   1
    38    33    43   1
    39    35    34   1
    40    34    40   1
    41    36    35   1
    42    35    41   1
    43    36    37   1
    44    36    42   1
    45    37    38   1
    46    37    43   1
    47    38    44   1
    48     1    45   1
    49     2    46   1
    50     3    47   1
    51     4    48   1
    52     6    49   1
    53     6    50   1
    54     7    51   1
    55     8    52   1
    56     9    53   1
    57    10    54   1
    58    11    55   1
    59    12    56   1
    60    13    57   1
    61    14    58   1
    62    15    59   1
    63    16    60   1
    64    17    61   1
    65    17    62   1
    66    17    63   1
    67    18    64   1
    68    18    65   1
    69    19    66   1
    70    20    67   1
    71    22    68   1
    72    23    69   1
    73    24    70   1
    74    25    71   1
    75    26    72   1
    76    27    73   1
    77    27    74   1
    78    28    75   1
    79    29    76   1
    80    32    77   1
    81    33    78   1
    82    34    79   1
    83    35    80   1
    84    36    81   1
    85    37    82   1
    86    38    83   1
    87    38    84   1
    88    39    85   1
    89    40    86   1
    90    41    87   1
    91    44    88   1
@<TRIPOS>SUBSTRUCTURE
     1  ACR      1

