@<TRIPOS>MOLECULE
2qmj_ligand_056
    88    91
SMALL
GAST_HUCK
****
This file was generated by PARSER (from files_GN.cpp)

@<TRIPOS>ATOM
      1 C1A       -20.2937   -6.4209  -10.6022 C.3         1 ACR       0.0141
      2 C2A       -21.3087   -7.3810  -11.3136 C.3         1 ACR       0.1303
      3 C3A       -20.6567   -8.7811  -11.4657 C.3         1 ACR       0.1215
      4 C4A       -19.3725   -8.6574  -12.3285 C.3         1 ACR       0.1112
      5 C5A       -18.5461   -7.4586  -12.0615 C.2         1 ACR      -0.0200
      6 C6A       -17.2341   -7.3619  -12.7132 C.3         1 ACR       0.0719
      7 C7A       -19.0142   -6.4353  -11.3079 C.2         1 ACR      -0.0543
      8 O2A       -22.5365   -7.4678  -10.5903 O.3         1 ACR      -0.3821
      9 O3A       -21.5909   -9.7052  -12.0255 O.3         1 ACR      -0.3843
     10 O4A       -18.6167   -9.8551  -12.1415 O.3         1 ACR      -0.3780
     11 O6A       -17.3587   -7.2124  -14.1249 O.3         1 ACR      -0.3839
     12 C1B       -17.2469   -7.2104   -5.9958 C.3         1 ACR       0.1886
     13 C2B       -17.1976   -5.9136   -6.8398 C.3         1 ACR       0.1370
     14 C3B       -18.5258   -5.6586   -7.6056 C.3         1 ACR       0.1304
     15 C4B       -18.9850   -6.9250   -8.3801 C.3         1 ACR       0.0341
     16 C5B       -19.0983   -8.0925   -7.3444 C.3         1 ACR       0.1038
     17 C6B       -19.5511   -9.4348   -7.9763 C.3         1 ACR      -0.0332
     18 N4B       -20.2610   -6.6949   -9.1264 N.4         1 ACR       0.2433
     19 O2B       -16.8890   -4.8090   -5.9868 O.3         1 ACR      -0.3840
     20 O3B       -18.3790   -4.5550   -8.4945 O.3         1 ACR      -0.3834
     21 O5B       -17.7979   -8.3186   -6.7318 O.3         1 ACR      -0.3401
     22 C1C       -18.1169   -5.4486   -2.0497 C.3         1 ACR       0.1884
     23 C2C       -16.6229   -5.6971   -2.4122 C.3         1 ACR       0.1341
     24 C3C       -16.3495   -7.1296   -2.9702 C.3         1 ACR       0.1144
     25 C4C       -17.6283   -7.7767   -3.6069 C.3         1 ACR       0.1184
     26 C5C       -18.8287   -7.7489   -2.5986 C.3         1 ACR       0.1134
     27 C6C       -19.0080   -9.0622   -1.7860 C.3         1 ACR       0.0730
     28 O2C       -16.1664   -4.7063   -3.3377 O.3         1 ACR      -0.3841
     29 O3C       -15.8597   -7.9859   -1.9421 O.3         1 ACR      -0.3864
     30 O4C       -18.0048   -7.0046   -4.7844 O.3         1 ACR      -0.3401
     31 O5C       -18.7579   -6.6741   -1.6428 O.3         1 ACR      -0.3405
     32 O6C       -18.0236   -9.2019   -0.7505 O.3         1 ACR      -0.3924
     33 C1D       -22.5351   -4.3180   -4.7307 C.3         1 ACR       0.1854
     34 C2D       -21.6625   -3.0372   -4.7532 C.3         1 ACR       0.1339
     35 C3D       -20.2138   -3.3718   -4.3647 C.3         1 ACR       0.1144
     36 C4D       -20.0979   -4.2329   -3.0645 C.3         1 ACR       0.1184
     37 C5D       -21.2503   -5.2971   -2.9063 C.3         1 ACR       0.1134
     38 C6D       -21.5241   -5.6674   -1.4145 C.3         1 ACR       0.0730
     39 O1D       -22.1073   -5.3175   -5.6660 O.3         1 ACR      -0.3649
     40 O2D       -21.7364   -2.4258   -6.0331 O.3         1 ACR      -0.3841
     41 O3D       -19.4849   -2.1566   -4.1892 O.3         1 ACR      -0.3864
     42 O4D       -18.7840   -4.8582   -3.1885 O.3         1 ACR      -0.3401
     43 O5D       -22.5283   -4.8573   -3.3997 O.3         1 ACR      -0.3407
     44 O6D       -21.8050   -7.0612   -1.2936 O.3         1 ACR      -0.3924
     45 H1        -20.7073   -5.4089  -10.7125 H           1 ACR       0.0950
     46 H2        -21.5531   -6.9871  -12.3191 H           1 ACR       0.0694
     47 H3        -20.4038   -9.1620  -10.4857 H           1 ACR       0.0671
     48 H4        -19.6740   -8.6136  -13.3861 H           1 ACR       0.0769
     49 H5        -16.6484   -8.2616  -12.4997 H           1 ACR       0.0706
     50 H6        -16.6609   -6.5034  -12.3529 H           1 ACR       0.0706
     51 H7        -18.4477   -5.6422  -11.1867 H           1 ACR       0.0299
     52 H8        -22.8581   -6.5359  -10.5010 H           1 ACR       0.2103
     53 H9        -21.3417   -9.8341  -12.9647 H           1 ACR       0.2102
     54 H10       -18.5614  -10.2517  -13.0401 H           1 ACR       0.2130
     55 H11       -16.5521   -6.7301  -14.4044 H           1 ACR       0.2125
     56 H12       -16.2183   -7.4665   -5.7419 H           1 ACR       0.0938
     57 H13       -16.3893   -6.0030   -7.5664 H           1 ACR       0.0672
     58 H14       -19.3082   -5.3873   -6.8949 H           1 ACR       0.0679
     59 H15       -18.1889   -7.2238   -9.0662 H           1 ACR       0.0903
     60 H16       -19.8331   -7.8391   -6.5640 H           1 ACR       0.0652
     61 H17       -19.4569  -10.2428   -7.2430 H           1 ACR       0.0257
     62 H18       -18.9259   -9.6711   -8.8396 H           1 ACR       0.0257
     63 H19       -20.5941   -9.3862   -8.2938 H           1 ACR       0.0257
     64 H20       -20.8446   -7.5149   -8.9760 H           1 ACR       0.2029
     65 H21       -20.7390   -5.9112   -8.6777 H           1 ACR       0.2029
     66 H22       -17.0795   -4.0002   -6.5118 H           1 ACR       0.2101
     67 H23       -17.5898   -4.7578   -9.0345 H           1 ACR       0.2102
     68 H24       -18.1420   -4.7418   -1.2099 H           1 ACR       0.0938
     69 H25       -16.0373   -5.5668   -1.5111 H           1 ACR       0.0671
     70 H26       -15.5646   -7.0937   -3.7336 H           1 ACR       0.0648
     71 H27       -17.4152   -8.8238   -3.8955 H           1 ACR       0.0651
     72 H28       -19.7354   -7.6452   -3.1764 H           1 ACR       0.0647
     73 H29       -18.9532   -9.9407   -2.4441 H           1 ACR       0.0584
     74 H30       -19.9978   -9.0626   -1.3119 H           1 ACR       0.0584
     75 H31       -15.1931   -4.8181   -3.3861 H           1 ACR       0.2101
     76 H32       -14.9800   -7.6343   -1.7166 H           1 ACR       0.2100
     77 H33       -18.2428  -10.0586   -0.3138 H           1 ACR       0.2095
     78 H34       -23.5741   -4.0388   -4.9795 H           1 ACR       0.0935
     79 H35       -22.0628   -2.3393   -4.0257 H           1 ACR       0.0671
     80 H36       -19.7551   -3.9057   -5.2011 H           1 ACR       0.0648
     81 H37       -20.1185   -3.5407   -2.2030 H           1 ACR       0.0651
     82 H38       -20.9768   -6.1965   -3.4468 H           1 ACR       0.0647
     83 H39       -22.3760   -5.0942   -1.0247 H           1 ACR       0.0584
     84 H40       -20.6690   -5.4261   -0.7656 H           1 ACR       0.0584
     85 H41       -22.8621   -5.9566   -5.7059 H           1 ACR       0.2126
     86 H42       -21.4890   -3.1170   -6.6798 H           1 ACR       0.2101
     87 H43       -18.5338   -2.3903   -4.2628 H           1 ACR       0.2100
     88 H44       -21.9865   -7.1903   -0.3297 H           1 ACR       0.2095
@<TRIPOS>BOND
     1     1     2   1
     2     1     7   1
     3    18     1   1
     4     2     3   1
     5     2     8   1
     6     3     4   1
     7     3     9   1
     8     5     4   1
     9     4    10   1
    10     5     6   1
    11     7     5   2
    12     6    11   1
    13    12    13   1
    14    12    21   1
    15    30    12   1
    16    13    14   1
    17    13    19   1
    18    14    15   1
    19    14    20   1
    20    16    15   1
    21    15    18   1
    22    16    17   1
    23    21    16   1
    24    22    23   1
    25    22    31   1
    26    42    22   1
    27    23    24   1
    28    23    28   1
    29    24    25   1
    30    24    29   1
    31    26    25   1
    32    25    30   1
    33    26    27   1
    34    31    26   1
    35    27    32   1
    36    34    33   1
    37    33    39   1
    38    33    43   1
    39    35    34   1
    40    34    40   1
    41    36    35   1
    42    35    41   1
    43    36    37   1
    44    36    42   1
    45    37    38   1
    46    37    43   1
    47    38    44   1
    48     1    45   1
    49     2    46   1
    50     3    47   1
    51     4    48   1
    52     6    49   1
    53     6    50   1
    54     7    51   1
    55     8    52   1
    56     9    53   1
    57    10    54   1
    58    11    55   1
    59    12    56   1
    60    13    57   1
    61    14    58   1
    62    15    59   1
    63    16    60   1
    64    17    61   1
    65    17    62   1
    66    17    63   1
    67    18    64   1
    68    18    65   1
    69    19    66   1
    70    20    67   1
    71    22    68   1
    72    23    69   1
    73    24    70   1
    74    25    71   1
    75    26    72   1
    76    27    73   1
    77    27    74   1
    78    28    75   1
    79    29    76   1
    80    32    77   1
    81    33    78   1
    82    34    79   1
    83    35    80   1
    84    36    81   1
    85    37    82   1
    86    38    83   1
    87    38    84   1
    88    39    85   1
    89    40    86   1
    90    41    87   1
    91    44    88   1
@<TRIPOS>SUBSTRUCTURE
     1  ACR      1

