@<TRIPOS>MOLECULE
2qmj_ligand_076
    88    91
SMALL
GAST_HUCK
****
This file was generated by PARSER (from files_GN.cpp)

@<TRIPOS>ATOM
      1 C1A       -17.8397   -4.0931   -3.9936 C.3         1 ACR       0.0141
      2 C2A       -18.0650   -3.2978   -2.6675 C.3         1 ACR       0.1303
      3 C3A       -17.7066   -1.8071   -2.8778 C.3         1 ACR       0.1215
      4 C4A       -16.2145   -1.7044   -3.3106 C.3         1 ACR       0.1112
      5 C5A       -15.8064   -2.6684   -4.3424 C.2         1 ACR      -0.0200
      6 C6A       -14.4492   -2.5613   -4.8854 C.3         1 ACR       0.0719
      7 C7A       -16.6006   -3.7112   -4.6805 C.2         1 ACR      -0.0543
      8 O2A       -19.3956   -3.4344   -2.1711 O.3         1 ACR      -0.3821
      9 O3A       -17.9190   -1.0260   -1.7005 O.3         1 ACR      -0.3843
     10 O4A       -15.9530   -0.3595   -3.7207 O.3         1 ACR      -0.3780
     11 O6A       -13.5048   -2.9769   -3.8944 O.3         1 ACR      -0.3839
     12 C1B       -19.3021   -7.9331   -6.7094 C.3         1 ACR       0.1886
     13 C2B       -19.1810   -6.7411   -7.6930 C.3         1 ACR       0.1370
     14 C3B       -18.6700   -5.4779   -6.9434 C.3         1 ACR       0.1304
     15 C4B       -19.5526   -5.1414   -5.7024 C.3         1 ACR       0.0341
     16 C5B       -19.8943   -6.4178   -4.8570 C.3         1 ACR       0.1038
     17 C6B       -21.0801   -6.2108   -3.8826 C.3         1 ACR      -0.0332
     18 N4B       -19.0431   -3.9908   -4.8899 N.4         1 ACR       0.2433
     19 O2B       -18.3082   -7.0670   -8.7726 O.3         1 ACR      -0.3840
     20 O3B       -18.6571   -4.3815   -7.8686 O.3         1 ACR      -0.3834
     21 O5B       -20.2308   -7.5649   -5.6703 O.3         1 ACR      -0.3401
     22 C1C       -16.4191  -11.4151   -3.7565 C.3         1 ACR       0.1884
     23 C2C       -17.9578  -11.2298   -3.7066 C.3         1 ACR       0.1341
     24 C3C       -18.4683  -10.4449   -4.9504 C.3         1 ACR       0.1144
     25 C4C       -17.7014   -9.0949   -5.0926 C.3         1 ACR       0.1184
     26 C5C       -16.1637   -9.3637   -5.0741 C.3         1 ACR       0.1134
     27 C6C       -15.3214   -8.0599   -5.0859 C.3         1 ACR       0.0730
     28 O2C       -18.6164  -12.4905   -3.6063 O.3         1 ACR      -0.3841
     29 O3C       -19.8695  -10.2122   -4.8011 O.3         1 ACR      -0.3864
     30 O4C       -17.9777   -8.3295   -6.2893 O.3         1 ACR      -0.3401
     31 O5C       -15.7833  -10.1289   -3.9067 O.3         1 ACR      -0.3405
     32 O6C       -13.9398   -8.3517   -4.9022 O.3         1 ACR      -0.3924
     33 C1D       -12.1962  -14.0497   -3.9113 C.3         1 ACR       0.1854
     34 C2D       -12.2146  -12.7513   -4.7635 C.3         1 ACR       0.1339
     35 C3D       -13.5689  -12.0065   -4.6223 C.3         1 ACR       0.1144
     36 C4D       -14.7705  -12.9645   -4.8776 C.3         1 ACR       0.1184
     37 C5D       -14.6391  -14.2322   -3.9734 C.3         1 ACR       0.1134
     38 C6D       -15.7260  -15.3026   -4.2360 C.3         1 ACR       0.0730
     39 O1D       -12.0558  -13.7855   -2.5130 O.3         1 ACR      -0.3649
     40 O2D       -11.1278  -11.8991   -4.4052 O.3         1 ACR      -0.3841
     41 O3D       -13.6072  -10.9243   -5.5521 O.3         1 ACR      -0.3864
     42 O4D       -16.0703  -12.3314   -4.8178 O.3         1 ACR      -0.3401
     43 O5D       -13.3569  -14.8672   -4.1713 O.3         1 ACR      -0.3407
     44 O6D       -15.6598  -15.8269   -5.5619 O.3         1 ACR      -0.3924
     45 H1        -17.6927   -5.1217   -3.6808 H           1 ACR       0.0950
     46 H2        -17.4026   -3.7095   -1.8946 H           1 ACR       0.0694
     47 H3        -18.3446   -1.4085   -3.6678 H           1 ACR       0.0671
     48 H4        -15.5872   -1.8861   -2.4312 H           1 ACR       0.0769
     49 H5        -14.2483   -1.5244   -5.1704 H           1 ACR       0.0706
     50 H6        -14.2883   -3.1781   -5.7738 H           1 ACR       0.0706
     51 H7        -16.2798   -4.3305   -5.3899 H           1 ACR       0.0299
     52 H8        -19.3161   -3.3273   -1.1944 H           1 ACR       0.2103
     53 H9        -18.8761   -1.1350   -1.4898 H           1 ACR       0.2102
     54 H10       -16.7747   -0.0508   -4.1673 H           1 ACR       0.2130
     55 H11       -12.6975   -2.4234   -4.0402 H           1 ACR       0.2125
     56 H12       -19.7397   -8.7749   -7.2439 H           1 ACR       0.0938
     57 H13       -20.1684   -6.5364   -8.1157 H           1 ACR       0.0672
     58 H14       -17.6462   -5.6667   -6.6192 H           1 ACR       0.0679
     59 H15       -20.5052   -4.7930   -6.1157 H           1 ACR       0.0903
     60 H16       -19.0353   -6.6941   -4.2554 H           1 ACR       0.0652
     61 H17       -21.2708   -7.1355   -3.3273 H           1 ACR       0.0257
     62 H18       -21.9841   -5.9444   -4.4336 H           1 ACR       0.0257
     63 H19       -20.8530   -5.4232   -3.1677 H           1 ACR       0.0257
     64 H20       -18.9049   -3.2037   -5.5336 H           1 ACR       0.2029
     65 H21       -19.8298   -3.7310   -4.2895 H           1 ACR       0.2029
     66 H22       -18.7901   -7.7424   -9.2992 H           1 ACR       0.2101
     67 H23       -18.3772   -3.5900   -7.3621 H           1 ACR       0.2102
     68 H24       -16.1129  -11.8210   -2.7906 H           1 ACR       0.0938
     69 H25       -18.2093  -10.6570   -2.8075 H           1 ACR       0.0671
     70 H26       -18.3180  -11.0422   -5.8552 H           1 ACR       0.0648
     71 H27       -17.9295   -8.4893   -4.2164 H           1 ACR       0.0651
     72 H28       -15.9055   -9.9323   -5.9719 H           1 ACR       0.0647
     73 H29       -15.6448   -7.3912   -4.2869 H           1 ACR       0.0584
     74 H30       -15.4328   -7.5431   -6.0408 H           1 ACR       0.0584
     75 H31       -18.3749  -12.8333   -2.7189 H           1 ACR       0.2101
     76 H32       -20.2946  -11.0878   -4.9315 H           1 ACR       0.2100
     77 H33       -13.5120   -7.4845   -4.7350 H           1 ACR       0.2095
     78 H34       -11.3213  -14.6357   -4.2022 H           1 ACR       0.0935
     79 H35       -12.0811  -13.0287   -5.8121 H           1 ACR       0.0671
     80 H36       -13.6416  -11.5928   -3.6126 H           1 ACR       0.0648
     81 H37       -14.6814  -13.3043   -5.9140 H           1 ACR       0.0651
     82 H38       -14.7275  -13.9431   -2.9255 H           1 ACR       0.0647
     83 H39       -16.7252  -14.8937   -4.0608 H           1 ACR       0.0584
     84 H40       -15.5818  -16.1368   -3.5435 H           1 ACR       0.0584
     85 H41       -12.7898  -13.1809   -2.2775 H           1 ACR       0.2126
     86 H42       -11.2750  -11.6677   -3.4633 H           1 ACR       0.2101
     87 H43       -12.9578  -10.2670   -5.2177 H           1 ACR       0.2100
     88 H44       -16.4313  -15.4431   -6.0338 H           1 ACR       0.2095
@<TRIPOS>BOND
     1     1     2   1
     2     1     7   1
     3    18     1   1
     4     2     3   1
     5     2     8   1
     6     3     4   1
     7     3     9   1
     8     5     4   1
     9     4    10   1
    10     5     6   1
    11     7     5   2
    12     6    11   1
    13    12    13   1
    14    12    21   1
    15    30    12   1
    16    13    14   1
    17    13    19   1
    18    14    15   1
    19    14    20   1
    20    16    15   1
    21    15    18   1
    22    16    17   1
    23    21    16   1
    24    22    23   1
    25    22    31   1
    26    42    22   1
    27    23    24   1
    28    23    28   1
    29    24    25   1
    30    24    29   1
    31    26    25   1
    32    25    30   1
    33    26    27   1
    34    31    26   1
    35    27    32   1
    36    34    33   1
    37    33    39   1
    38    33    43   1
    39    35    34   1
    40    34    40   1
    41    36    35   1
    42    35    41   1
    43    36    37   1
    44    36    42   1
    45    37    38   1
    46    37    43   1
    47    38    44   1
    48     1    45   1
    49     2    46   1
    50     3    47   1
    51     4    48   1
    52     6    49   1
    53     6    50   1
    54     7    51   1
    55     8    52   1
    56     9    53   1
    57    10    54   1
    58    11    55   1
    59    12    56   1
    60    13    57   1
    61    14    58   1
    62    15    59   1
    63    16    60   1
    64    17    61   1
    65    17    62   1
    66    17    63   1
    67    18    64   1
    68    18    65   1
    69    19    66   1
    70    20    67   1
    71    22    68   1
    72    23    69   1
    73    24    70   1
    74    25    71   1
    75    26    72   1
    76    27    73   1
    77    27    74   1
    78    28    75   1
    79    29    76   1
    80    32    77   1
    81    33    78   1
    82    34    79   1
    83    35    80   1
    84    36    81   1
    85    37    82   1
    86    38    83   1
    87    38    84   1
    88    39    85   1
    89    40    86   1
    90    41    87   1
    91    44    88   1
@<TRIPOS>SUBSTRUCTURE
     1  ACR      1

