@<TRIPOS>MOLECULE
2qmj_ligand_033
    88    91
SMALL
GAST_HUCK
****
This file was generated by PARSER (from files_GN.cpp)

@<TRIPOS>ATOM
      1 C1A       -19.6161   -5.8871  -10.9962 C.3         1 ACR       0.0141
      2 C2A       -20.8858   -5.5959  -11.8478 C.3         1 ACR       0.1303
      3 C3A       -21.7491   -6.8799  -11.9697 C.3         1 ACR       0.1215
      4 C4A       -20.9054   -8.0926  -12.4818 C.3         1 ACR       0.1112
      5 C5A       -19.4567   -8.0667  -12.1775 C.2         1 ACR      -0.0200
      6 C6A       -18.5883   -9.1565  -12.6337 C.3         1 ACR       0.0719
      7 C7A       -18.8771   -6.9894  -11.5987 C.2         1 ACR      -0.0543
      8 O2A       -21.6067   -4.4990  -11.2986 O.3         1 ACR      -0.3821
      9 O3A       -22.8537   -6.6287  -12.8411 O.3         1 ACR      -0.3843
     10 O4A       -21.4976   -9.2865  -11.9611 O.3         1 ACR      -0.3780
     11 O6A       -17.6076   -9.5229  -11.6544 O.3         1 ACR      -0.3839
     12 C1B       -17.9093   -7.1508   -5.8579 C.3         1 ACR       0.1886
     13 C2B       -17.5047   -5.8177   -6.5640 C.3         1 ACR       0.1370
     14 C3B       -18.6063   -5.4001   -7.5813 C.3         1 ACR       0.1304
     15 C4B       -18.8279   -6.5325   -8.6306 C.3         1 ACR       0.0341
     16 C5B       -19.0923   -7.8838   -7.8785 C.3         1 ACR       0.1038
     17 C6B       -19.1410   -9.1182   -8.8162 C.3         1 ACR      -0.0332
     18 N4B       -19.9485   -6.1850   -9.5667 N.4         1 ACR       0.2433
     19 O2B       -17.2065   -4.8015   -5.6111 O.3         1 ACR      -0.3840
     20 O3B       -18.2810   -4.1685   -8.2225 O.3         1 ACR      -0.3834
     21 O5B       -18.0596   -8.1509   -6.8898 O.3         1 ACR      -0.3401
     22 C1C       -21.4855   -4.9866   -2.2395 C.3         1 ACR       0.1884
     23 C2C       -21.7928   -4.9119   -3.7603 C.3         1 ACR       0.1341
     24 C3C       -21.1710   -6.1233   -4.5048 C.3         1 ACR       0.1144
     25 C4C       -19.6426   -6.1779   -4.2178 C.3         1 ACR       0.1184
     26 C5C       -19.4673   -6.3555   -2.6735 C.3         1 ACR       0.1134
     27 C6C       -17.9936   -6.4203   -2.1941 C.3         1 ACR       0.0730
     28 O2C       -23.2030   -4.8452   -3.9827 O.3         1 ACR      -0.3841
     29 O3C       -21.4598   -6.0326   -5.9014 O.3         1 ACR      -0.3864
     30 O4C       -19.1056   -7.2426   -5.0347 O.3         1 ACR      -0.3401
     31 O5C       -20.0900   -5.2463   -1.9750 O.3         1 ACR      -0.3405
     32 O6C       -17.3442   -5.1541   -2.2665 O.3         1 ACR      -0.3924
     33 C1D       -24.8776   -7.9496    0.0681 C.3         1 ACR       0.1854
     34 C2D       -25.1127   -7.1994   -1.2682 C.3         1 ACR       0.1339
     35 C3D       -24.6799   -5.7144   -1.1358 C.3         1 ACR       0.1144
     36 C4D       -23.2378   -5.5792   -0.5638 C.3         1 ACR       0.1184
     37 C5D       -23.0210   -6.4637    0.7070 C.3         1 ACR       0.1134
     38 C6D       -23.5486   -5.8461    2.0317 C.3         1 ACR       0.0730
     39 O1D       -25.1409   -9.3398   -0.0893 O.3         1 ACR      -0.3649
     40 O2D       -24.3777   -7.8233   -2.3233 O.3         1 ACR      -0.3841
     41 O3D       -25.6094   -4.9945   -0.3245 O.3         1 ACR      -0.3864
     42 O4D       -22.3408   -5.9785   -1.6290 O.3         1 ACR      -0.3401
     43 O5D       -23.5095   -7.8112    0.5081 O.3         1 ACR      -0.3407
     44 O6D       -22.8499   -4.6458    2.3486 O.3         1 ACR      -0.3924
     45 H1        -18.9962   -4.9881  -11.0273 H           1 ACR       0.0950
     46 H2        -20.5848   -5.2893  -12.8566 H           1 ACR       0.0694
     47 H3        -22.1633   -7.1119  -10.9872 H           1 ACR       0.0671
     48 H4        -20.9963   -8.1295  -13.5738 H           1 ACR       0.0769
     49 H5        -18.0736   -8.8600  -13.5589 H           1 ACR       0.0706
     50 H6        -19.1601  -10.0596  -12.8496 H           1 ACR       0.0706
     51 H7        -17.8796   -6.9551  -11.5204 H           1 ACR       0.0299
     52 H8        -22.4044   -4.8862  -10.8860 H           1 ACR       0.2103
     53 H9        -23.2770   -7.5016  -12.9883 H           1 ACR       0.2102
     54 H10       -21.4105   -9.9547  -12.6766 H           1 ACR       0.2130
     55 H11       -16.8314   -8.9539  -11.8414 H           1 ACR       0.2125
     56 H12       -17.0662   -7.4617   -5.2407 H           1 ACR       0.0938
     57 H13       -16.5763   -5.9952   -7.1214 H           1 ACR       0.0672
     58 H14       -19.5399   -5.2266   -7.0494 H           1 ACR       0.0679
     59 H15       -17.8902   -6.6448   -9.1809 H           1 ACR       0.0903
     60 H16       -20.0665   -7.8300   -7.3804 H           1 ACR       0.0652
     61 H17       -19.3463  -10.0167   -8.2232 H           1 ACR       0.0257
     62 H18       -18.1802   -9.2492   -9.3265 H           1 ACR       0.0257
     63 H19       -19.9330   -9.0152   -9.5628 H           1 ACR       0.0257
     64 H20       -20.6028   -6.9670   -9.5710 H           1 ACR       0.2029
     65 H21       -20.4449   -5.3782   -9.1764 H           1 ACR       0.2029
     66 H22       -17.0404   -3.9918   -6.1209 H           1 ACR       0.2101
     67 H23       -17.8301   -3.6341   -7.5414 H           1 ACR       0.2102
     68 H24       -21.7032   -3.9963   -1.8322 H           1 ACR       0.0938
     69 H25       -21.3572   -3.9928   -4.1637 H           1 ACR       0.0671
     70 H26       -21.6477   -7.0474   -4.1525 H           1 ACR       0.0648
     71 H27       -19.2282   -5.2099   -4.5042 H           1 ACR       0.0651
     72 H28       -19.9476   -7.2931   -2.3637 H           1 ACR       0.0647
     73 H29       -17.4323   -7.1573   -2.7717 H           1 ACR       0.0584
     74 H30       -17.9751   -6.7376   -1.1465 H           1 ACR       0.0584
     75 H31       -23.3713   -5.4415   -4.7440 H           1 ACR       0.2101
     76 H32       -21.5043   -5.0772   -6.1043 H           1 ACR       0.2100
     77 H33       -17.2462   -4.9629   -3.2165 H           1 ACR       0.2095
     78 H34       -25.5606   -7.5730    0.8351 H           1 ACR       0.0935
     79 H35       -26.1733   -7.2455   -1.5313 H           1 ACR       0.0671
     80 H36       -24.7105   -5.2452   -2.1259 H           1 ACR       0.0648
     81 H37       -23.0829   -4.5250   -0.3125 H           1 ACR       0.0651
     82 H38       -21.9439   -6.5737    0.8514 H           1 ACR       0.0647
     83 H39       -23.3983   -6.5530    2.8489 H           1 ACR       0.0584
     84 H40       -24.6122   -5.6217    1.9671 H           1 ACR       0.0584
     85 H41       -26.1074   -9.4035   -0.2538 H           1 ACR       0.2126
     86 H42       -24.8293   -8.6777   -2.4869 H           1 ACR       0.2101
     87 H43       -26.4317   -4.9378   -0.8550 H           1 ACR       0.2100
     88 H44       -23.2376   -4.3373    3.1965 H           1 ACR       0.2095
@<TRIPOS>BOND
     1     1     2   1
     2     1     7   1
     3    18     1   1
     4     2     3   1
     5     2     8   1
     6     3     4   1
     7     3     9   1
     8     5     4   1
     9     4    10   1
    10     5     6   1
    11     7     5   2
    12     6    11   1
    13    12    13   1
    14    12    21   1
    15    30    12   1
    16    13    14   1
    17    13    19   1
    18    14    15   1
    19    14    20   1
    20    16    15   1
    21    15    18   1
    22    16    17   1
    23    21    16   1
    24    22    23   1
    25    22    31   1
    26    42    22   1
    27    23    24   1
    28    23    28   1
    29    24    25   1
    30    24    29   1
    31    26    25   1
    32    25    30   1
    33    26    27   1
    34    31    26   1
    35    27    32   1
    36    34    33   1
    37    33    39   1
    38    33    43   1
    39    35    34   1
    40    34    40   1
    41    36    35   1
    42    35    41   1
    43    36    37   1
    44    36    42   1
    45    37    38   1
    46    37    43   1
    47    38    44   1
    48     1    45   1
    49     2    46   1
    50     3    47   1
    51     4    48   1
    52     6    49   1
    53     6    50   1
    54     7    51   1
    55     8    52   1
    56     9    53   1
    57    10    54   1
    58    11    55   1
    59    12    56   1
    60    13    57   1
    61    14    58   1
    62    15    59   1
    63    16    60   1
    64    17    61   1
    65    17    62   1
    66    17    63   1
    67    18    64   1
    68    18    65   1
    69    19    66   1
    70    20    67   1
    71    22    68   1
    72    23    69   1
    73    24    70   1
    74    25    71   1
    75    26    72   1
    76    27    73   1
    77    27    74   1
    78    28    75   1
    79    29    76   1
    80    32    77   1
    81    33    78   1
    82    34    79   1
    83    35    80   1
    84    36    81   1
    85    37    82   1
    86    38    83   1
    87    38    84   1
    88    39    85   1
    89    40    86   1
    90    41    87   1
    91    44    88   1
@<TRIPOS>SUBSTRUCTURE
     1  ACR      1

