@<TRIPOS>MOLECULE
2qmj_ligand_006
    88    91
SMALL
GAST_HUCK
****
This file was generated by PARSER (from files_GN.cpp)

@<TRIPOS>ATOM
      1 C1A       -19.5973   -6.2075  -10.7909 C.3         1 ACR       0.0141
      2 C2A       -20.7987   -5.8351  -11.7083 C.3         1 ACR       0.1303
      3 C3A       -21.7623   -7.0420  -11.8368 C.3         1 ACR       0.1215
      4 C4A       -21.0001   -8.3161  -12.3318 C.3         1 ACR       0.1112
      5 C5A       -19.6109   -8.4646  -11.8602 C.2         1 ACR      -0.0200
      6 C6A       -18.8642   -9.6945  -12.1329 C.3         1 ACR       0.0719
      7 C7A       -18.9724   -7.4513  -11.2323 C.2         1 ACR      -0.0543
      8 O2A       -21.4385   -4.6453  -11.2420 O.3         1 ACR      -0.3821
      9 O3A       -22.8199   -6.7225  -12.7418 O.3         1 ACR      -0.3843
     10 O4A       -21.8003   -9.4463  -11.9741 O.3         1 ACR      -0.3780
     11 O6A       -17.6971   -9.4353  -12.9087 O.3         1 ACR      -0.3839
     12 C1B       -17.9103   -6.9007   -5.5921 C.3         1 ACR       0.1886
     13 C2B       -17.7405   -5.5286   -6.2988 C.3         1 ACR       0.1370
     14 C3B       -18.8522   -5.3081   -7.3624 C.3         1 ACR       0.1304
     15 C4B       -18.9192   -6.5156   -8.3417 C.3         1 ACR       0.0341
     16 C5B       -19.1149   -7.8282   -7.5186 C.3         1 ACR       0.1038
     17 C6B       -19.1306   -9.1232   -8.3653 C.3         1 ACR      -0.0332
     18 N4B       -20.0055   -6.3035   -9.3518 N.4         1 ACR       0.2433
     19 O2B       -17.7319   -4.4832   -5.3268 O.3         1 ACR      -0.3840
     20 O3B       -18.6005   -4.1195   -8.1072 O.3         1 ACR      -0.3834
     21 O5B       -18.0339   -7.9653   -6.5585 O.3         1 ACR      -0.3401
     22 C1C       -20.5633   -9.8246   -2.9074 C.3         1 ACR       0.1884
     23 C2C       -21.3029   -8.5018   -3.2502 C.3         1 ACR       0.1341
     24 C3C       -20.4589   -7.2690   -2.8189 C.3         1 ACR       0.1144
     25 C4C       -18.9924   -7.3346   -3.3620 C.3         1 ACR       0.1184
     26 C5C       -18.3523   -8.7567   -3.1462 C.3         1 ACR       0.1134
     27 C6C       -17.6683   -8.9781   -1.7685 C.3         1 ACR       0.0730
     28 O2C       -21.5686   -8.4199   -4.6549 O.3         1 ACR      -0.3841
     29 O3C       -20.4807   -7.1422   -1.3982 O.3         1 ACR      -0.3864
     30 O4C       -19.0805   -6.9205   -4.7474 O.3         1 ACR      -0.3401
     31 O5C       -19.2540   -9.8174   -3.5092 O.3         1 ACR      -0.3405
     32 O6C       -18.5336   -8.8668   -0.6454 O.3         1 ACR      -0.3924
     33 C1D       -21.4147  -15.1533   -3.2318 C.3         1 ACR       0.1854
     34 C2D       -21.0072  -14.4440   -1.9158 C.3         1 ACR       0.1339
     35 C3D       -21.3483  -12.9314   -1.9721 C.3         1 ACR       0.1144
     36 C4D       -20.7789  -12.2704   -3.2578 C.3         1 ACR       0.1184
     37 C5D       -21.1600  -13.0926   -4.5306 C.3         1 ACR       0.1134
     38 C6D       -20.4531  -12.5582   -5.8164 C.3         1 ACR       0.0730
     39 O1D       -22.8354  -15.2257   -3.3580 O.3         1 ACR      -0.3649
     40 O2D       -21.6479  -15.0573   -0.7954 O.3         1 ACR      -0.3841
     41 O3D       -20.8109  -12.2942   -0.8176 O.3         1 ACR      -0.3864
     42 O4D       -21.3141  -10.9353   -3.4352 O.3         1 ACR      -0.3401
     43 O5D       -20.8278  -14.4926   -4.3727 O.3         1 ACR      -0.3407
     44 O6D       -21.4016  -12.2401   -6.8299 O.3         1 ACR      -0.3924
     45 H1        -18.8687   -5.3947  -10.8891 H           1 ACR       0.0950
     46 H2        -20.4123   -5.6015  -12.7061 H           1 ACR       0.0694
     47 H3        -22.2129   -7.2339  -10.8589 H           1 ACR       0.0671
     48 H4        -20.9525   -8.2808  -13.4254 H           1 ACR       0.0769
     49 H5        -19.4580  -10.4423  -12.6598 H           1 ACR       0.0706
     50 H6        -18.5498  -10.1479  -11.1915 H           1 ACR       0.0706
     51 H7        -18.0197   -7.5786  -10.9788 H           1 ACR       0.0299
     52 H8        -22.2713   -4.9333  -10.8108 H           1 ACR       0.2103
     53 H9        -23.2890   -7.5692  -12.9027 H           1 ACR       0.2102
     54 H10       -21.7233  -10.0667  -12.7302 H           1 ACR       0.2130
     55 H11       -18.0082   -9.4557  -13.8353 H           1 ACR       0.2125
     56 H12       -16.9949   -7.0770   -5.0214 H           1 ACR       0.0938
     57 H13       -16.7670   -5.5251   -6.7992 H           1 ACR       0.0672
     58 H14       -19.8140   -5.1818   -6.8600 H           1 ACR       0.0679
     59 H15       -17.9450   -6.5835   -8.8329 H           1 ACR       0.0903
     60 H16       -20.0742   -7.7804   -6.9916 H           1 ACR       0.0652
     61 H17       -19.2309   -9.9855   -7.7063 H           1 ACR       0.0257
     62 H18       -18.2063   -9.2252   -8.9297 H           1 ACR       0.0257
     63 H19       -19.9751   -9.1267   -9.0563 H           1 ACR       0.0257
     64 H20       -20.6842   -7.0634   -9.2715 H           1 ACR       0.2029
     65 H21       -20.4977   -5.4426   -9.0956 H           1 ACR       0.2029
     66 H22       -17.3804   -3.6982   -5.8011 H           1 ACR       0.2101
     67 H23       -18.3656   -3.4268   -7.4559 H           1 ACR       0.2102
     68 H24       -20.4945   -9.9163   -1.8242 H           1 ACR       0.0938
     69 H25       -22.2660   -8.4726   -2.7294 H           1 ACR       0.0671
     70 H26       -20.9409   -6.3593   -3.2013 H           1 ACR       0.0648
     71 H27       -18.3874   -6.5763   -2.8443 H           1 ACR       0.0651
     72 H28       -17.5387   -8.8705   -3.8581 H           1 ACR       0.0647
     73 H29       -16.8693   -8.2468   -1.6467 H           1 ACR       0.0584
     74 H30       -17.2186   -9.9724   -1.7552 H           1 ACR       0.0584
     75 H31       -22.2473   -9.1053   -4.8325 H           1 ACR       0.2101
     76 H32       -20.0502   -6.2824   -1.2055 H           1 ACR       0.2100
     77 H33       -17.9643   -9.0402    0.1295 H           1 ACR       0.2095
     78 H34       -21.0298  -16.1744   -3.2144 H           1 ACR       0.0935
     79 H35       -19.9263  -14.5565   -1.7856 H           1 ACR       0.0671
     80 H36       -22.4313  -12.8049   -1.9456 H           1 ACR       0.0648
     81 H37       -19.6872  -12.2715   -3.1865 H           1 ACR       0.0651
     82 H38       -22.2426  -13.0161   -4.6840 H           1 ACR       0.0647
     83 H39       -19.7543  -13.2935   -6.2167 H           1 ACR       0.0584
     84 H40       -19.8786  -11.6520   -5.6098 H           1 ACR       0.0584
     85 H41       -23.0030  -15.3086   -4.3219 H           1 ACR       0.2126
     86 H42       -21.2407  -15.9500   -0.7198 H           1 ACR       0.2101
     87 H43       -21.3618  -12.6001   -0.0657 H           1 ACR       0.2100
     88 H44       -21.0757  -11.4123   -7.2413 H           1 ACR       0.2095
@<TRIPOS>BOND
     1     1     2   1
     2     1     7   1
     3    18     1   1
     4     2     3   1
     5     2     8   1
     6     3     4   1
     7     3     9   1
     8     5     4   1
     9     4    10   1
    10     5     6   1
    11     7     5   2
    12     6    11   1
    13    12    13   1
    14    12    21   1
    15    30    12   1
    16    13    14   1
    17    13    19   1
    18    14    15   1
    19    14    20   1
    20    16    15   1
    21    15    18   1
    22    16    17   1
    23    21    16   1
    24    22    23   1
    25    22    31   1
    26    42    22   1
    27    23    24   1
    28    23    28   1
    29    24    25   1
    30    24    29   1
    31    26    25   1
    32    25    30   1
    33    26    27   1
    34    31    26   1
    35    27    32   1
    36    34    33   1
    37    33    39   1
    38    33    43   1
    39    35    34   1
    40    34    40   1
    41    36    35   1
    42    35    41   1
    43    36    37   1
    44    36    42   1
    45    37    38   1
    46    37    43   1
    47    38    44   1
    48     1    45   1
    49     2    46   1
    50     3    47   1
    51     4    48   1
    52     6    49   1
    53     6    50   1
    54     7    51   1
    55     8    52   1
    56     9    53   1
    57    10    54   1
    58    11    55   1
    59    12    56   1
    60    13    57   1
    61    14    58   1
    62    15    59   1
    63    16    60   1
    64    17    61   1
    65    17    62   1
    66    17    63   1
    67    18    64   1
    68    18    65   1
    69    19    66   1
    70    20    67   1
    71    22    68   1
    72    23    69   1
    73    24    70   1
    74    25    71   1
    75    26    72   1
    76    27    73   1
    77    27    74   1
    78    28    75   1
    79    29    76   1
    80    32    77   1
    81    33    78   1
    82    34    79   1
    83    35    80   1
    84    36    81   1
    85    37    82   1
    86    38    83   1
    87    38    84   1
    88    39    85   1
    89    40    86   1
    90    41    87   1
    91    44    88   1
@<TRIPOS>SUBSTRUCTURE
     1  ACR      1

