@<TRIPOS>MOLECULE
2qmj_ligand_009
    88    91
SMALL
GAST_HUCK
****
This file was generated by PARSER (from files_GN.cpp)

@<TRIPOS>ATOM
      1 C1A       -19.6274   -6.0496  -10.9019 C.3         1 ACR       0.0141
      2 C2A       -20.8643   -5.6989  -11.7786 C.3         1 ACR       0.1303
      3 C3A       -21.8285   -6.9113  -11.8602 C.3         1 ACR       0.1215
      4 C4A       -21.0857   -8.2141  -12.3072 C.3         1 ACR       0.1112
      5 C5A       -19.6687   -8.3212  -11.9212 C.2         1 ACR      -0.0200
      6 C6A       -18.9321   -9.5596  -12.2012 C.3         1 ACR       0.0719
      7 C7A       -18.9992   -7.2797  -11.3758 C.2         1 ACR      -0.0543
      8 O2A       -21.5065   -4.5192  -11.2903 O.3         1 ACR      -0.3821
      9 O3A       -22.8938   -6.6083  -12.7593 O.3         1 ACR      -0.3843
     10 O4A       -21.8163   -9.3396  -11.8132 O.3         1 ACR      -0.3780
     11 O6A       -17.7620   -9.3005  -12.9752 O.3         1 ACR      -0.3839
     12 C1B       -18.0430   -6.9616   -5.6773 C.3         1 ACR       0.1886
     13 C2B       -17.8127   -5.5568   -6.2995 C.3         1 ACR       0.1370
     14 C3B       -18.8773   -5.2826   -7.4001 C.3         1 ACR       0.1304
     15 C4B       -18.8904   -6.4135   -8.4760 C.3         1 ACR       0.0341
     16 C5B       -19.0453   -7.7911   -7.7576 C.3         1 ACR       0.1038
     17 C6B       -18.9473   -9.0302   -8.6741 C.3         1 ACR      -0.0332
     18 N4B       -19.9937   -6.1768   -9.4589 N.4         1 ACR       0.2433
     19 O2B       -17.8342   -4.5407   -5.2993 O.3         1 ACR      -0.3840
     20 O3B       -18.6425   -4.0280   -8.0327 O.3         1 ACR      -0.3834
     21 O5B       -18.0200   -7.9371   -6.7463 O.3         1 ACR      -0.3401
     22 C1C       -21.9213   -8.0646   -2.4381 C.3         1 ACR       0.1884
     23 C2C       -20.4375   -7.8906   -2.0235 C.3         1 ACR       0.1341
     24 C3C       -19.5084   -8.6263   -3.0359 C.3         1 ACR       0.1144
     25 C4C       -19.8180   -8.2797   -4.5297 C.3         1 ACR       0.1184
     26 C5C       -21.3553   -8.2234   -4.8238 C.3         1 ACR       0.1134
     27 C6C       -22.0242   -9.5830   -5.1902 C.3         1 ACR       0.0730
     28 O2C       -20.1260   -6.4963   -1.9660 O.3         1 ACR      -0.3841
     29 O3C       -19.6331  -10.0391   -2.8257 O.3         1 ACR      -0.3864
     30 O4C       -19.2622   -6.9862   -4.8960 O.3         1 ACR      -0.3401
     31 O5C       -22.0552   -7.5280   -3.7712 O.3         1 ACR      -0.3405
     32 O6C       -21.6813  -10.0084   -6.5077 O.3         1 ACR      -0.3924
     33 C1D       -26.6331   -5.5837   -1.4992 C.3         1 ACR       0.1854
     34 C2D       -26.0329   -5.8967   -2.8948 C.3         1 ACR       0.1339
     35 C3D       -24.9022   -6.9455   -2.7781 C.3         1 ACR       0.1144
     36 C4D       -23.8042   -6.4802   -1.7625 C.3         1 ACR       0.1184
     37 C5D       -24.5041   -6.1214   -0.4035 C.3         1 ACR       0.1134
     38 C6D       -23.5359   -5.5350    0.6623 C.3         1 ACR       0.0730
     39 O1D       -27.3816   -6.6854   -0.9845 O.3         1 ACR      -0.3649
     40 O2D       -27.0358   -6.3713   -3.7926 O.3         1 ACR      -0.3841
     41 O3D       -24.3860   -7.1228   -4.0954 O.3         1 ACR      -0.3864
     42 O4D       -22.8115   -7.4917   -1.4595 O.3         1 ACR      -0.3401
     43 O5D       -25.5924   -5.1799   -0.5791 O.3         1 ACR      -0.3407
     44 O6D       -23.4547   -4.1112    0.6254 O.3         1 ACR      -0.3924
     45 H1        -18.9188   -5.2247  -11.0073 H           1 ACR       0.0950
     46 H2        -20.5226   -5.4617  -12.7895 H           1 ACR       0.0694
     47 H3        -22.2709   -7.0659  -10.8736 H           1 ACR       0.0671
     48 H4        -21.1045   -8.2718  -13.3986 H           1 ACR       0.0769
     49 H5        -19.5385  -10.2974  -12.7349 H           1 ACR       0.0706
     50 H6        -18.6204  -10.0258  -11.2653 H           1 ACR       0.0706
     51 H7        -18.0194   -7.3715  -11.1987 H           1 ACR       0.0299
     52 H8        -22.3258   -4.8206  -10.8492 H           1 ACR       0.2103
     53 H9        -23.3544   -7.4595  -12.9204 H           1 ACR       0.2102
     54 H10       -22.6073   -9.4121  -12.3893 H           1 ACR       0.2130
     55 H11       -18.0693   -9.3613  -13.9030 H           1 ACR       0.2125
     56 H12       -17.2055   -7.1859   -5.0131 H           1 ACR       0.0938
     57 H13       -16.8200   -5.5409   -6.7564 H           1 ACR       0.0672
     58 H14       -19.8633   -5.2284   -6.9289 H           1 ACR       0.0679
     59 H15       -17.9135   -6.4052   -8.9743 H           1 ACR       0.0903
     60 H16       -20.0342   -7.8293   -7.2971 H           1 ACR       0.0652
     61 H17       -18.9235   -9.9379   -8.0710 H           1 ACR       0.0257
     62 H18       -18.0448   -8.9917   -9.2791 H           1 ACR       0.0257
     63 H19       -19.8167   -9.0877   -9.3299 H           1 ACR       0.0257
     64 H20       -20.6721   -6.9385   -9.3701 H           1 ACR       0.2029
     65 H21       -20.4813   -5.3191   -9.1755 H           1 ACR       0.2029
     66 H22       -17.5566   -3.7171   -5.7628 H           1 ACR       0.2101
     67 H23       -18.8145   -3.3471   -7.3484 H           1 ACR       0.2102
     68 H24       -22.1703   -9.1326   -2.4407 H           1 ACR       0.0938
     69 H25       -20.2862   -8.3086   -1.0235 H           1 ACR       0.0671
     70 H26       -18.4670   -8.3675   -2.8168 H           1 ACR       0.0648
     71 H27       -19.3918   -9.0752   -5.1480 H           1 ACR       0.0651
     72 H28       -21.5120   -7.5845   -5.6963 H           1 ACR       0.0647
     73 H29       -23.1106   -9.4683   -5.1513 H           1 ACR       0.0584
     74 H30       -21.7367  -10.3696   -4.4881 H           1 ACR       0.0584
     75 H31       -19.2295   -6.4533   -1.5613 H           1 ACR       0.2101
     76 H32       -18.9008  -10.4442   -3.3362 H           1 ACR       0.2100
     77 H33       -20.7686  -10.3582   -6.4445 H           1 ACR       0.2095
     78 H34       -27.3302   -4.7447   -1.5997 H           1 ACR       0.0935
     79 H35       -25.6090   -4.9737   -3.3149 H           1 ACR       0.0671
     80 H36       -25.3155   -7.9016   -2.4370 H           1 ACR       0.0648
     81 H37       -23.3040   -5.5812   -2.1468 H           1 ACR       0.0651
     82 H38       -24.9149   -7.0449    0.0223 H           1 ACR       0.0647
     83 H39       -22.5355   -5.9520    0.5469 H           1 ACR       0.0584
     84 H40       -23.8938   -5.8068    1.6592 H           1 ACR       0.0584
     85 H41       -28.1912   -6.7030   -1.5406 H           1 ACR       0.2126
     86 H42       -27.1794   -5.6308   -4.4197 H           1 ACR       0.2101
     87 H43       -25.1009   -7.5689   -4.6022 H           1 ACR       0.2100
     88 H44       -23.4125   -3.8575   -0.3183 H           1 ACR       0.2095
@<TRIPOS>BOND
     1     1     2   1
     2     1     7   1
     3    18     1   1
     4     2     3   1
     5     2     8   1
     6     3     4   1
     7     3     9   1
     8     5     4   1
     9     4    10   1
    10     5     6   1
    11     7     5   2
    12     6    11   1
    13    12    13   1
    14    12    21   1
    15    30    12   1
    16    13    14   1
    17    13    19   1
    18    14    15   1
    19    14    20   1
    20    16    15   1
    21    15    18   1
    22    16    17   1
    23    21    16   1
    24    22    23   1
    25    22    31   1
    26    42    22   1
    27    23    24   1
    28    23    28   1
    29    24    25   1
    30    24    29   1
    31    26    25   1
    32    25    30   1
    33    26    27   1
    34    31    26   1
    35    27    32   1
    36    34    33   1
    37    33    39   1
    38    33    43   1
    39    35    34   1
    40    34    40   1
    41    36    35   1
    42    35    41   1
    43    36    37   1
    44    36    42   1
    45    37    38   1
    46    37    43   1
    47    38    44   1
    48     1    45   1
    49     2    46   1
    50     3    47   1
    51     4    48   1
    52     6    49   1
    53     6    50   1
    54     7    51   1
    55     8    52   1
    56     9    53   1
    57    10    54   1
    58    11    55   1
    59    12    56   1
    60    13    57   1
    61    14    58   1
    62    15    59   1
    63    16    60   1
    64    17    61   1
    65    17    62   1
    66    17    63   1
    67    18    64   1
    68    18    65   1
    69    19    66   1
    70    20    67   1
    71    22    68   1
    72    23    69   1
    73    24    70   1
    74    25    71   1
    75    26    72   1
    76    27    73   1
    77    27    74   1
    78    28    75   1
    79    29    76   1
    80    32    77   1
    81    33    78   1
    82    34    79   1
    83    35    80   1
    84    36    81   1
    85    37    82   1
    86    38    83   1
    87    38    84   1
    88    39    85   1
    89    40    86   1
    90    41    87   1
    91    44    88   1
@<TRIPOS>SUBSTRUCTURE
     1  ACR      1

