@<TRIPOS>MOLECULE
2qmj_ligand_028
    88    91
SMALL
GAST_HUCK
****
This file was generated by PARSER (from files_GN.cpp)

@<TRIPOS>ATOM
      1 C1A       -19.9936   -5.5643  -11.1387 C.3         1 ACR       0.0141
      2 C2A       -21.3584   -5.2390  -11.8111 C.3         1 ACR       0.1303
      3 C3A       -22.1821   -6.5465  -11.9803 C.3         1 ACR       0.1215
      4 C4A       -21.3630   -7.6274  -12.7618 C.3         1 ACR       0.1112
      5 C5A       -19.8964   -7.5707  -12.6107 C.2         1 ACR      -0.0200
      6 C6A       -19.0934   -8.5601  -13.3366 C.3         1 ACR       0.0719
      7 C7A       -19.2972   -6.6033  -11.8793 C.2         1 ACR      -0.0543
      8 O2A       -22.0259   -4.2367  -11.0484 O.3         1 ACR      -0.3821
      9 O3A       -23.4090   -6.2670  -12.6598 O.3         1 ACR      -0.3843
     10 O4A       -21.8595   -8.9149  -12.3757 O.3         1 ACR      -0.3780
     11 O6A       -17.7492   -8.1722  -13.6329 O.3         1 ACR      -0.3839
     12 C1B       -17.8541   -7.1212   -6.2475 C.3         1 ACR       0.1886
     13 C2B       -18.0137   -5.5918   -6.4903 C.3         1 ACR       0.1370
     14 C3B       -19.1234   -5.2770   -7.5384 C.3         1 ACR       0.1304
     15 C4B       -18.9854   -6.1394   -8.8361 C.3         1 ACR       0.0341
     16 C5B       -18.8296   -7.6331   -8.4174 C.3         1 ACR       0.1038
     17 C6B       -18.6119   -8.6597   -9.5503 C.3         1 ACR      -0.0332
     18 N4B       -20.1822   -5.9299   -9.7048 N.4         1 ACR       0.2433
     19 O2B       -18.2505   -4.9133   -5.2572 O.3         1 ACR      -0.3840
     20 O3B       -19.0786   -3.9023   -7.9132 O.3         1 ACR      -0.3834
     21 O5B       -17.6950   -7.7402   -7.5364 O.3         1 ACR      -0.3401
     22 C1C       -17.2955  -11.5085   -4.3833 C.3         1 ACR       0.1884
     23 C2C       -18.3371  -11.5863   -5.5279 C.3         1 ACR       0.1341
     24 C3C       -18.6254  -10.1689   -6.0802 C.3         1 ACR       0.1144
     25 C4C       -18.9166   -9.0791   -4.9907 C.3         1 ACR       0.1184
     26 C5C       -17.9938   -9.2433   -3.7386 C.3         1 ACR       0.1134
     27 C6C       -18.4998   -8.4999   -2.4768 C.3         1 ACR       0.0730
     28 O2C       -17.8540  -12.3983   -6.6031 O.3         1 ACR      -0.3841
     29 O3C       -19.7201  -10.2511   -6.9920 O.3         1 ACR      -0.3864
     30 O4C       -18.9510   -7.7043   -5.4889 O.3         1 ACR      -0.3401
     31 O5C       -17.8253  -10.6310   -3.3633 O.3         1 ACR      -0.3405
     32 O6C       -18.5212   -7.0859   -2.6418 O.3         1 ACR      -0.3924
     33 C1D       -12.4114  -10.9944   -5.5209 C.3         1 ACR       0.1854
     34 C2D       -13.1486  -12.3194   -5.1910 C.3         1 ACR       0.1339
     35 C3D       -14.0131  -12.1634   -3.9100 C.3         1 ACR       0.1144
     36 C4D       -14.9204  -10.8979   -3.9548 C.3         1 ACR       0.1184
     37 C5D       -14.1274   -9.6198   -4.3997 C.3         1 ACR       0.1134
     38 C6D       -13.3616   -8.8846   -3.2580 C.3         1 ACR       0.0730
     39 O1D       -11.7856  -11.0788   -6.7962 O.3         1 ACR      -0.3649
     40 O2D       -13.9527  -12.7376   -6.2958 O.3         1 ACR      -0.3841
     41 O3D       -13.1520  -12.1134   -2.7710 O.3         1 ACR      -0.3864
     42 O4D       -16.0072  -11.0846   -4.8947 O.3         1 ACR      -0.3401
     43 O5D       -13.3086   -9.8683   -5.5649 O.3         1 ACR      -0.3407
     44 O6D       -13.3291   -7.4742   -3.4731 O.3         1 ACR      -0.3924
     45 H1        -19.3879   -4.6589  -11.1942 H           1 ACR       0.0950
     46 H2        -21.1830   -4.8115  -12.8081 H           1 ACR       0.0694
     47 H3        -22.4451   -6.9297  -10.9919 H           1 ACR       0.0671
     48 H4        -21.5776   -7.4989  -13.8278 H           1 ACR       0.0769
     49 H5        -19.5642   -8.7763  -14.2976 H           1 ACR       0.0706
     50 H6        -19.0607   -9.4833  -12.7526 H           1 ACR       0.0706
     51 H7        -18.3039   -6.5916  -11.8063 H           1 ACR       0.0299
     52 H8        -22.9545   -4.5400  -10.9336 H           1 ACR       0.2103
     53 H9        -23.7261   -7.1461  -12.9642 H           1 ACR       0.2102
     54 H10       -21.6011   -9.5322  -13.0953 H           1 ACR       0.2130
     55 H11       -17.8003   -7.1952  -13.7681 H           1 ACR       0.2125
     56 H12       -16.9209   -7.2720   -5.6967 H           1 ACR       0.0938
     57 H13       -17.0652   -5.2141   -6.8842 H           1 ACR       0.0672
     58 H14       -20.0970   -5.4711   -7.0770 H           1 ACR       0.0679
     59 H15       -18.0727   -5.8194   -9.3497 H           1 ACR       0.0903
     60 H16       -19.7432   -7.9372   -7.9013 H           1 ACR       0.0652
     61 H17       -18.3643   -9.6283   -9.1203 H           1 ACR       0.0257
     62 H18       -17.7947   -8.3595  -10.2049 H           1 ACR       0.0257
     63 H19       -19.5267   -8.7815  -10.1321 H           1 ACR       0.0257
     64 H20       -20.7493   -6.7796   -9.6707 H           1 ACR       0.2029
     65 H21       -20.7444   -5.1821   -9.2859 H           1 ACR       0.2029
     66 H22       -19.1269   -5.2247   -4.9465 H           1 ACR       0.2101
     67 H23       -19.1714   -3.3769   -7.0906 H           1 ACR       0.2102
     68 H24       -17.1904  -12.5049   -3.9495 H           1 ACR       0.0938
     69 H25       -19.2649  -12.0208   -5.1423 H           1 ACR       0.0671
     70 H26       -17.7408   -9.8941   -6.6406 H           1 ACR       0.0648
     71 H27       -19.9402   -9.2757   -4.6487 H           1 ACR       0.0651
     72 H28       -17.0172   -8.8310   -3.9653 H           1 ACR       0.0647
     73 H29       -17.8207   -8.7161   -1.6439 H           1 ACR       0.0584
     74 H30       -19.4959   -8.8482   -2.1951 H           1 ACR       0.0584
     75 H31       -18.0254  -13.3317   -6.3508 H           1 ACR       0.2101
     76 H32       -20.4842  -10.5454   -6.4604 H           1 ACR       0.2100
     77 H33       -19.2247   -6.9128   -3.3037 H           1 ACR       0.2095
     78 H34       -11.6224  -10.8208   -4.7876 H           1 ACR       0.0935
     79 H35       -12.4061  -13.1046   -5.0291 H           1 ACR       0.0671
     80 H36       -14.6370  -13.0537   -3.7963 H           1 ACR       0.0648
     81 H37       -15.3187  -10.7260   -2.9501 H           1 ACR       0.0651
     82 H38       -14.8631   -8.8969   -4.7520 H           1 ACR       0.0647
     83 H39       -12.3382   -9.2514   -3.1666 H           1 ACR       0.0584
     84 H40       -13.8644   -9.0403   -2.3009 H           1 ACR       0.0584
     85 H41       -11.6254  -10.1467   -7.0613 H           1 ACR       0.2126
     86 H42       -14.7525  -12.1752   -6.2706 H           1 ACR       0.2101
     87 H43       -13.7455  -12.2020   -1.9928 H           1 ACR       0.2100
     88 H44       -12.8518   -7.3401   -4.3168 H           1 ACR       0.2095
@<TRIPOS>BOND
     1     1     2   1
     2     1     7   1
     3    18     1   1
     4     2     3   1
     5     2     8   1
     6     3     4   1
     7     3     9   1
     8     5     4   1
     9     4    10   1
    10     5     6   1
    11     7     5   2
    12     6    11   1
    13    12    13   1
    14    12    21   1
    15    30    12   1
    16    13    14   1
    17    13    19   1
    18    14    15   1
    19    14    20   1
    20    16    15   1
    21    15    18   1
    22    16    17   1
    23    21    16   1
    24    22    23   1
    25    22    31   1
    26    42    22   1
    27    23    24   1
    28    23    28   1
    29    24    25   1
    30    24    29   1
    31    26    25   1
    32    25    30   1
    33    26    27   1
    34    31    26   1
    35    27    32   1
    36    34    33   1
    37    33    39   1
    38    33    43   1
    39    35    34   1
    40    34    40   1
    41    36    35   1
    42    35    41   1
    43    36    37   1
    44    36    42   1
    45    37    38   1
    46    37    43   1
    47    38    44   1
    48     1    45   1
    49     2    46   1
    50     3    47   1
    51     4    48   1
    52     6    49   1
    53     6    50   1
    54     7    51   1
    55     8    52   1
    56     9    53   1
    57    10    54   1
    58    11    55   1
    59    12    56   1
    60    13    57   1
    61    14    58   1
    62    15    59   1
    63    16    60   1
    64    17    61   1
    65    17    62   1
    66    17    63   1
    67    18    64   1
    68    18    65   1
    69    19    66   1
    70    20    67   1
    71    22    68   1
    72    23    69   1
    73    24    70   1
    74    25    71   1
    75    26    72   1
    76    27    73   1
    77    27    74   1
    78    28    75   1
    79    29    76   1
    80    32    77   1
    81    33    78   1
    82    34    79   1
    83    35    80   1
    84    36    81   1
    85    37    82   1
    86    38    83   1
    87    38    84   1
    88    39    85   1
    89    40    86   1
    90    41    87   1
    91    44    88   1
@<TRIPOS>SUBSTRUCTURE
     1  ACR      1

