@<TRIPOS>MOLECULE
2qmj_ligand_048
    88    91
SMALL
GAST_HUCK
****
This file was generated by PARSER (from files_GN.cpp)

@<TRIPOS>ATOM
      1 C1A       -20.5917   -7.3095   -9.4888 C.3         1 ACR       0.0141
      2 C2A       -19.9492   -8.7255   -9.6896 C.3         1 ACR       0.1303
      3 C3A       -18.8256   -8.6366  -10.7498 C.3         1 ACR       0.1215
      4 C4A       -19.4358   -8.1481  -12.0966 C.3         1 ACR       0.1112
      5 C5A       -20.4059   -7.0431  -11.9756 C.2         1 ACR      -0.0200
      6 C6A       -20.9776   -6.4726  -13.1983 C.3         1 ACR       0.0719
      7 C7A       -20.9591   -6.7235  -10.7791 C.2         1 ACR      -0.0543
      8 O2A       -19.4741   -9.3327   -8.4898 O.3         1 ACR      -0.3821
      9 O3A       -18.1961   -9.9077  -10.9220 O.3         1 ACR      -0.3843
     10 O4A       -18.3623   -7.8412  -12.9887 O.3         1 ACR      -0.3780
     11 O6A       -21.5061   -5.1598  -13.0050 O.3         1 ACR      -0.3839
     12 C1B       -17.9057   -5.9292   -4.8298 C.3         1 ACR       0.1886
     13 C2B       -17.0301   -5.8511   -6.1192 C.3         1 ACR       0.1370
     14 C3B       -17.8696   -5.5433   -7.3891 C.3         1 ACR       0.1304
     15 C4B       -19.0876   -6.5086   -7.4983 C.3         1 ACR       0.0341
     16 C5B       -19.9229   -6.3525   -6.1819 C.3         1 ACR       0.1038
     17 C6B       -21.1868   -7.2415   -6.1026 C.3         1 ACR      -0.0332
     18 N4B       -19.8061   -6.2463   -8.7841 N.4         1 ACR       0.2433
     19 O2B       -15.9782   -4.9002   -5.9821 O.3         1 ACR      -0.3840
     20 O3B       -17.0401   -5.6721   -8.5461 O.3         1 ACR      -0.3834
     21 O5B       -19.0939   -6.7167   -5.0515 O.3         1 ACR      -0.3401
     22 C1C       -17.1511   -2.3020   -0.8418 C.3         1 ACR       0.1884
     23 C2C       -16.5915   -1.8977   -2.2316 C.3         1 ACR       0.1341
     24 C3C       -17.3859   -2.5594   -3.3909 C.3         1 ACR       0.1144
     25 C4C       -17.5253   -4.0931   -3.1783 C.3         1 ACR       0.1184
     26 C5C       -18.1954   -4.3218   -1.7842 C.3         1 ACR       0.1134
     27 C6C       -18.3845   -5.8136   -1.4116 C.3         1 ACR       0.0730
     28 O2C       -16.6091   -0.4754   -2.3635 O.3         1 ACR      -0.3841
     29 O3C       -16.7243   -2.2837   -4.6210 O.3         1 ACR      -0.3864
     30 O4C       -18.2925   -4.6406   -4.2838 O.3         1 ACR      -0.3401
     31 O5C       -17.3740   -3.7274   -0.7514 O.3         1 ACR      -0.3405
     32 O6C       -18.9378   -5.9560   -0.1050 O.3         1 ACR      -0.3924
     33 C1D       -19.6797    0.2863    3.0416 C.3         1 ACR       0.1854
     34 C2D       -18.5066   -0.7000    3.2570 C.3         1 ACR       0.1339
     35 C3D       -17.8388   -1.0905    1.9088 C.3         1 ACR       0.1144
     36 C4D       -18.8695   -1.5217    0.8160 C.3         1 ACR       0.1184
     37 C5D       -20.0735   -0.5233    0.7774 C.3         1 ACR       0.1134
     38 C6D       -21.2408   -0.9909   -0.1261 C.3         1 ACR       0.0730
     39 O1D       -19.2314    1.5778    2.6203 O.3         1 ACR      -0.3649
     40 O2D       -17.5471   -0.1555    4.1687 O.3         1 ACR      -0.3841
     41 O3D       -16.9263   -2.1549    2.1779 O.3         1 ACR      -0.3864
     42 O4D       -18.3254   -1.5262   -0.5266 O.3         1 ACR      -0.3401
     43 O5D       -20.6131   -0.2661    2.0943 O.3         1 ACR      -0.3407
     44 O6D       -21.6902   -2.3021    0.2128 O.3         1 ACR      -0.3924
     45 H1        -21.5170   -7.4728   -8.9412 H           1 ACR       0.0950
     46 H2        -20.7262   -9.4001  -10.0747 H           1 ACR       0.0694
     47 H3        -18.0668   -7.9273  -10.4113 H           1 ACR       0.0671
     48 H4        -19.9726   -8.9930  -12.5454 H           1 ACR       0.0769
     49 H5        -21.7948   -7.1188  -13.5304 H           1 ACR       0.0706
     50 H6        -20.2501   -6.4210  -14.0133 H           1 ACR       0.0706
     51 H7        -21.6531   -6.0121  -10.7625 H           1 ACR       0.0299
     52 H8        -20.2747   -9.7307   -8.0749 H           1 ACR       0.2103
     53 H9        -17.5787   -9.9947  -10.1637 H           1 ACR       0.2102
     54 H10       -18.2726   -6.8679  -12.9782 H           1 ACR       0.2130
     55 H11       -20.7336   -4.5607  -12.9319 H           1 ACR       0.2125
     56 H12       -17.3304   -6.4931   -4.0914 H           1 ACR       0.0938
     57 H13       -16.5508   -6.8256   -6.2572 H           1 ACR       0.0672
     58 H14       -18.2303   -4.5102   -7.3476 H           1 ACR       0.0679
     59 H15       -18.6840   -7.5227   -7.5147 H           1 ACR       0.0903
     60 H16       -20.2541   -5.3147   -6.0755 H           1 ACR       0.0652
     61 H17       -21.5981   -7.2173   -5.0924 H           1 ACR       0.0257
     62 H18       -20.9502   -8.2786   -6.3554 H           1 ACR       0.0257
     63 H19       -21.9599   -6.8711   -6.7790 H           1 ACR       0.0257
     64 H20       -20.4448   -5.4670   -8.6039 H           1 ACR       0.2029
     65 H21       -19.1078   -5.9227   -9.4572 H           1 ACR       0.2029
     66 H22       -16.3799   -4.0472   -6.2444 H           1 ACR       0.2101
     67 H23       -16.1238   -5.7558   -8.1980 H           1 ACR       0.2102
     68 H24       -16.3704   -2.0523   -0.1198 H           1 ACR       0.0938
     69 H25       -15.5471   -2.2264   -2.2895 H           1 ACR       0.0671
     70 H26       -18.3815   -2.1079   -3.4503 H           1 ACR       0.0648
     71 H27       -16.5152   -4.5151   -3.1530 H           1 ACR       0.0651
     72 H28       -19.1885   -3.8588   -1.7772 H           1 ACR       0.0647
     73 H29       -17.4276   -6.3393   -1.4438 H           1 ACR       0.0584
     74 H30       -19.0745   -6.2885   -2.1113 H           1 ACR       0.0584
     75 H31       -16.2119   -0.2882   -3.2411 H           1 ACR       0.2101
     76 H32       -15.8266   -2.6670   -4.5265 H           1 ACR       0.2100
     77 H33       -18.2327   -5.6589    0.5086 H           1 ACR       0.2095
     78 H34       -20.2078    0.4174    3.9889 H           1 ACR       0.0935
     79 H35       -18.9118   -1.6054    3.7179 H           1 ACR       0.0671
     80 H36       -17.2693   -0.2356    1.5358 H           1 ACR       0.0648
     81 H37       -19.2496   -2.5162    1.0647 H           1 ACR       0.0651
     82 H38       -19.7150    0.4254    0.3623 H           1 ACR       0.0647
     83 H39       -20.9378   -0.9833   -1.1749 H           1 ACR       0.0584
     84 H40       -22.0813   -0.3017   -0.0117 H           1 ACR       0.0584
     85 H41       -18.6018    1.8869    3.3073 H           1 ACR       0.2126
     86 H42       -17.3511    0.7564    3.8591 H           1 ACR       0.2101
     87 H43       -16.1569   -1.7382    2.6232 H           1 ACR       0.2100
     88 H44       -22.3548   -2.5347   -0.4767 H           1 ACR       0.2095
@<TRIPOS>BOND
     1     1     2   1
     2     1     7   1
     3    18     1   1
     4     2     3   1
     5     2     8   1
     6     3     4   1
     7     3     9   1
     8     5     4   1
     9     4    10   1
    10     5     6   1
    11     7     5   2
    12     6    11   1
    13    12    13   1
    14    12    21   1
    15    30    12   1
    16    13    14   1
    17    13    19   1
    18    14    15   1
    19    14    20   1
    20    16    15   1
    21    15    18   1
    22    16    17   1
    23    21    16   1
    24    22    23   1
    25    22    31   1
    26    42    22   1
    27    23    24   1
    28    23    28   1
    29    24    25   1
    30    24    29   1
    31    26    25   1
    32    25    30   1
    33    26    27   1
    34    31    26   1
    35    27    32   1
    36    34    33   1
    37    33    39   1
    38    33    43   1
    39    35    34   1
    40    34    40   1
    41    36    35   1
    42    35    41   1
    43    36    37   1
    44    36    42   1
    45    37    38   1
    46    37    43   1
    47    38    44   1
    48     1    45   1
    49     2    46   1
    50     3    47   1
    51     4    48   1
    52     6    49   1
    53     6    50   1
    54     7    51   1
    55     8    52   1
    56     9    53   1
    57    10    54   1
    58    11    55   1
    59    12    56   1
    60    13    57   1
    61    14    58   1
    62    15    59   1
    63    16    60   1
    64    17    61   1
    65    17    62   1
    66    17    63   1
    67    18    64   1
    68    18    65   1
    69    19    66   1
    70    20    67   1
    71    22    68   1
    72    23    69   1
    73    24    70   1
    74    25    71   1
    75    26    72   1
    76    27    73   1
    77    27    74   1
    78    28    75   1
    79    29    76   1
    80    32    77   1
    81    33    78   1
    82    34    79   1
    83    35    80   1
    84    36    81   1
    85    37    82   1
    86    38    83   1
    87    38    84   1
    88    39    85   1
    89    40    86   1
    90    41    87   1
    91    44    88   1
@<TRIPOS>SUBSTRUCTURE
     1  ACR      1

