@<TRIPOS>MOLECULE
2qmj_ligand_036
    88    91
SMALL
GAST_HUCK
****
This file was generated by PARSER (from files_GN.cpp)

@<TRIPOS>ATOM
      1 C1A       -19.6488   -6.0858  -10.8000 C.3         1 ACR       0.0141
      2 C2A       -20.8021   -5.6724  -11.7649 C.3         1 ACR       0.1303
      3 C3A       -21.7650   -6.8730  -11.9768 C.3         1 ACR       0.1215
      4 C4A       -20.9944   -8.1559  -12.4222 C.3         1 ACR       0.1112
      5 C5A       -19.5919   -8.2760  -11.9735 C.2         1 ACR      -0.0200
      6 C6A       -18.8021   -9.4351  -12.3713 C.3         1 ACR       0.0719
      7 C7A       -18.9717   -7.2620  -11.3289 C.2         1 ACR      -0.0543
      8 O2A       -21.4772   -4.5078  -11.2914 O.3         1 ACR      -0.3821
      9 O3A       -22.7571   -6.5187  -12.9411 O.3         1 ACR      -0.3843
     10 O4A       -21.7286   -9.3072  -12.0033 O.3         1 ACR      -0.3780
     11 O6A       -17.9756   -9.9081  -11.3094 O.3         1 ACR      -0.3839
     12 C1B       -18.0591   -6.7692   -5.5666 C.3         1 ACR       0.1886
     13 C2B       -17.4396   -5.8392   -6.6450 C.3         1 ACR       0.1370
     14 C3B       -18.5227   -5.3889   -7.6653 C.3         1 ACR       0.1304
     15 C4B       -19.1799   -6.6437   -8.3152 C.3         1 ACR       0.0341
     16 C5B       -19.8313   -7.4732   -7.1636 C.3         1 ACR       0.1038
     17 C6B       -20.4388   -8.8164   -7.6436 C.3         1 ACR      -0.0332
     18 N4B       -20.1472   -6.2943   -9.4019 N.4         1 ACR       0.2433
     19 O2B       -16.7830   -4.7212   -6.0485 O.3         1 ACR      -0.3840
     20 O3B       -17.9468   -4.5206   -8.6341 O.3         1 ACR      -0.3834
     21 O5B       -18.8478   -7.8291   -6.1642 O.3         1 ACR      -0.3401
     22 C1C       -17.5603   -5.5060   -1.3582 C.3         1 ACR       0.1884
     23 C2C       -17.2746   -6.8921   -2.0424 C.3         1 ACR       0.1341
     24 C3C       -18.5577   -7.5440   -2.6633 C.3         1 ACR       0.1144
     25 C4C       -19.4230   -6.5042   -3.4508 C.3         1 ACR       0.1184
     26 C5C       -19.6904   -5.2481   -2.5609 C.3         1 ACR       0.1134
     27 C6C       -20.7151   -5.4241   -1.3960 C.3         1 ACR       0.0730
     28 O2C       -16.3020   -6.7381   -3.0986 O.3         1 ACR      -0.3841
     29 O3C       -19.3146   -8.1997   -1.6354 O.3         1 ACR      -0.3864
     30 O4C       -18.7891   -5.9526   -4.6368 O.3         1 ACR      -0.3401
     31 O5C       -18.4307   -4.6765   -2.1509 O.3         1 ACR      -0.3405
     32 O6C       -20.6843   -4.2862   -0.5263 O.3         1 ACR      -0.3924
     33 C1D       -15.8019   -1.5991   -3.7534 C.3         1 ACR       0.1854
     34 C2D       -14.8010   -2.7694   -3.9095 C.3         1 ACR       0.1339
     35 C3D       -15.3405   -4.0233   -3.1592 C.3         1 ACR       0.1144
     36 C4D       -15.7128   -3.7143   -1.6723 C.3         1 ACR       0.1184
     37 C5D       -16.5125   -2.3621   -1.5134 C.3         1 ACR       0.1134
     38 C6D       -16.4790   -1.7879   -0.0711 C.3         1 ACR       0.0730
     39 O1D       -17.0423   -1.8846   -4.3989 O.3         1 ACR      -0.3649
     40 O2D       -14.5381   -3.0629   -5.2793 O.3         1 ACR      -0.3841
     41 O3D       -14.3469   -5.0572   -3.2199 O.3         1 ACR      -0.3864
     42 O4D       -16.3129   -4.8617   -0.9940 O.3         1 ACR      -0.3401
     43 O5D       -15.9956   -1.2990   -2.3554 O.3         1 ACR      -0.3407
     44 O6D       -16.3138   -2.7826    0.9491 O.3         1 ACR      -0.3924
     45 H1        -18.9470   -5.2464  -10.8077 H           1 ACR       0.0950
     46 H2        -20.3783   -5.4033  -12.7412 H           1 ACR       0.0694
     47 H3        -22.2870   -7.0693  -11.0367 H           1 ACR       0.0671
     48 H4        -20.9579   -8.1706  -13.5154 H           1 ACR       0.0769
     49 H5        -18.1602   -9.1665  -13.2174 H           1 ACR       0.0706
     50 H6        -19.4320  -10.2682  -12.6914 H           1 ACR       0.0706
     51 H7        -17.9886   -7.3329  -11.1466 H           1 ACR       0.0299
     52 H8        -22.2923   -4.8337  -10.8679 H           1 ACR       0.2103
     53 H9        -23.2584   -7.3446  -13.1092 H           1 ACR       0.2102
     54 H10       -22.5550   -9.2921  -12.5374 H           1 ACR       0.2130
     55 H11       -18.5935  -10.1288  -10.5856 H           1 ACR       0.2125
     56 H12       -17.2282   -7.2318   -5.0170 H           1 ACR       0.0938
     57 H13       -16.6760   -6.4021   -7.1713 H           1 ACR       0.0672
     58 H14       -19.2957   -4.8054   -7.1470 H           1 ACR       0.0679
     59 H15       -18.3836   -7.2744   -8.7239 H           1 ACR       0.0903
     60 H16       -20.6251   -6.9002   -6.6866 H           1 ACR       0.0652
     61 H17       -20.8422   -9.3785   -6.7954 H           1 ACR       0.0257
     62 H18       -19.6772   -9.4256   -8.1421 H           1 ACR       0.0257
     63 H19       -21.2543   -8.6344   -8.3433 H           1 ACR       0.0257
     64 H20       -20.8200   -7.0501   -9.4541 H           1 ACR       0.2029
     65 H21       -20.6539   -5.4614   -9.1004 H           1 ACR       0.2029
     66 H22       -17.1014   -3.9198   -6.5256 H           1 ACR       0.2101
     67 H23       -17.0779   -4.9102   -8.8468 H           1 ACR       0.2102
     68 H24       -18.0603   -5.7099   -0.4076 H           1 ACR       0.0938
     69 H25       -16.8618   -7.5995   -1.2847 H           1 ACR       0.0671
     70 H26       -18.2535   -8.3450   -3.3449 H           1 ACR       0.0648
     71 H27       -20.3729   -6.9696   -3.7435 H           1 ACR       0.0651
     72 H28       -20.1517   -4.4908   -3.2065 H           1 ACR       0.0647
     73 H29       -20.5027   -6.3118   -0.7896 H           1 ACR       0.0584
     74 H30       -21.7359   -5.5131   -1.7984 H           1 ACR       0.0584
     75 H31       -15.9175   -7.6578   -3.1971 H           1 ACR       0.2101
     76 H32       -20.0348   -8.6703   -2.1231 H           1 ACR       0.2100
     77 H33       -21.3622   -4.4792    0.1597 H           1 ACR       0.2095
     78 H34       -15.3765   -0.7160   -4.2370 H           1 ACR       0.0935
     79 H35       -13.8545   -2.4683   -3.4527 H           1 ACR       0.0671
     80 H36       -16.2285   -4.3968   -3.6842 H           1 ACR       0.0648
     81 H37       -14.7508   -3.5668   -1.1632 H           1 ACR       0.0651
     82 H38       -17.5525   -2.5282   -1.7646 H           1 ACR       0.0647
     83 H39       -17.4359   -1.2849    0.1254 H           1 ACR       0.0584
     84 H40       -15.6905   -1.0217    0.0390 H           1 ACR       0.0584
     85 H41       -17.5577   -1.0579   -4.2755 H           1 ACR       0.2126
     86 H42       -15.3547   -2.8234   -5.7735 H           1 ACR       0.2101
     87 H43       -13.5340   -4.6634   -2.8181 H           1 ACR       0.2100
     88 H44       -15.3387   -2.9337    0.9778 H           1 ACR       0.2095
@<TRIPOS>BOND
     1     1     2   1
     2     1     7   1
     3    18     1   1
     4     2     3   1
     5     2     8   1
     6     3     4   1
     7     3     9   1
     8     5     4   1
     9     4    10   1
    10     5     6   1
    11     7     5   2
    12     6    11   1
    13    12    13   1
    14    12    21   1
    15    30    12   1
    16    13    14   1
    17    13    19   1
    18    14    15   1
    19    14    20   1
    20    16    15   1
    21    15    18   1
    22    16    17   1
    23    21    16   1
    24    22    23   1
    25    22    31   1
    26    42    22   1
    27    23    24   1
    28    23    28   1
    29    24    25   1
    30    24    29   1
    31    26    25   1
    32    25    30   1
    33    26    27   1
    34    31    26   1
    35    27    32   1
    36    34    33   1
    37    33    39   1
    38    33    43   1
    39    35    34   1
    40    34    40   1
    41    36    35   1
    42    35    41   1
    43    36    37   1
    44    36    42   1
    45    37    38   1
    46    37    43   1
    47    38    44   1
    48     1    45   1
    49     2    46   1
    50     3    47   1
    51     4    48   1
    52     6    49   1
    53     6    50   1
    54     7    51   1
    55     8    52   1
    56     9    53   1
    57    10    54   1
    58    11    55   1
    59    12    56   1
    60    13    57   1
    61    14    58   1
    62    15    59   1
    63    16    60   1
    64    17    61   1
    65    17    62   1
    66    17    63   1
    67    18    64   1
    68    18    65   1
    69    19    66   1
    70    20    67   1
    71    22    68   1
    72    23    69   1
    73    24    70   1
    74    25    71   1
    75    26    72   1
    76    27    73   1
    77    27    74   1
    78    28    75   1
    79    29    76   1
    80    32    77   1
    81    33    78   1
    82    34    79   1
    83    35    80   1
    84    36    81   1
    85    37    82   1
    86    38    83   1
    87    38    84   1
    88    39    85   1
    89    40    86   1
    90    41    87   1
    91    44    88   1
@<TRIPOS>SUBSTRUCTURE
     1  ACR      1

