@<TRIPOS>MOLECULE
2qmj_ligand_077
    88    91
SMALL
GAST_HUCK
****
This file was generated by PARSER (from files_GN.cpp)

@<TRIPOS>ATOM
      1 C1A       -20.0196   -7.6433   -9.2233 C.3         1 ACR       0.0141
      2 C2A       -19.8631   -9.0726   -9.8409 C.3         1 ACR       0.1303
      3 C3A       -19.3651   -8.9899  -11.3076 C.3         1 ACR       0.1215
      4 C4A       -20.3667   -8.1419  -12.1433 C.3         1 ACR       0.1112
      5 C5A       -20.7603   -6.8757  -11.4952 C.2         1 ACR      -0.0200
      6 C6A       -21.4798   -5.8584  -12.2607 C.3         1 ACR       0.0719
      7 C7A       -20.5940   -6.6831  -10.1651 C.2         1 ACR      -0.0543
      8 O2A       -19.0000   -9.8867   -9.0488 O.3         1 ACR      -0.3821
      9 O3A       -19.2262  -10.3045  -11.8506 O.3         1 ACR      -0.3843
     10 O4A       -19.7922   -7.9218  -13.4351 O.3         1 ACR      -0.3780
     11 O6A       -21.0993   -4.5452  -11.8537 O.3         1 ACR      -0.3839
     12 C1B       -19.8933   -6.0240   -4.6652 C.3         1 ACR       0.1886
     13 C2B       -19.5629   -4.8389   -5.6080 C.3         1 ACR       0.1370
     14 C3B       -19.5088   -5.3135   -7.0812 C.3         1 ACR       0.1304
     15 C4B       -18.6132   -6.5737   -7.2899 C.3         1 ACR       0.0341
     16 C5B       -18.8432   -7.6458   -6.1688 C.3         1 ACR       0.1038
     17 C6B       -17.7234   -8.7107   -6.1021 C.3         1 ACR      -0.0332
     18 N4B       -18.7166   -7.1250   -8.6822 N.4         1 ACR       0.2433
     19 O2B       -20.5444   -3.8179   -5.4439 O.3         1 ACR      -0.3840
     20 O3B       -19.0556   -4.2450   -7.9184 O.3         1 ACR      -0.3834
     21 O5B       -18.8970   -7.0506   -4.8527 O.3         1 ACR      -0.3401
     22 C1C       -22.6443   -9.8895   -3.9267 C.3         1 ACR       0.1884
     23 C2C       -23.2794   -8.9506   -4.9861 C.3         1 ACR       0.1341
     24 C3C       -23.3906   -7.4900   -4.4641 C.3         1 ACR       0.1144
     25 C4C       -22.0680   -6.9644   -3.8184 C.3         1 ACR       0.1184
     26 C5C       -21.4009   -8.0387   -2.8883 C.3         1 ACR       0.1134
     27 C6C       -21.8855   -8.0729   -1.4056 C.3         1 ACR       0.0730
     28 O2C       -22.5022   -8.9818   -6.1821 O.3         1 ACR      -0.3841
     29 O3C       -24.4937   -7.4061   -3.5629 O.3         1 ACR      -0.3864
     30 O4C       -21.2243   -6.5428   -4.9178 O.3         1 ACR      -0.3401
     31 O5C       -21.3784   -9.3414   -3.5122 O.3         1 ACR      -0.3405
     32 O6C       -23.2876   -8.2277   -1.2155 O.3         1 ACR      -0.3924
     33 C1D       -18.5491  -12.7980   -4.3589 C.3         1 ACR       0.1854
     34 C2D       -19.2495  -12.6671   -5.7393 C.3         1 ACR       0.1339
     35 C3D       -20.4882  -11.7287   -5.6738 C.3         1 ACR       0.1144
     36 C4D       -21.4087  -12.0756   -4.4669 C.3         1 ACR       0.1184
     37 C5D       -20.5780  -12.1872   -3.1466 C.3         1 ACR       0.1134
     38 C6D       -21.4250  -12.6626   -1.9391 C.3         1 ACR       0.0730
     39 O1D       -17.8177  -11.6229   -4.0073 O.3         1 ACR      -0.3649
     40 O2D       -18.3188  -12.2217   -6.7304 O.3         1 ACR      -0.3841
     41 O3D       -21.2298  -11.8691   -6.8935 O.3         1 ACR      -0.3864
     42 O4D       -22.5872  -11.2353   -4.4488 O.3         1 ACR      -0.3401
     43 O5D       -19.4945  -13.1274   -3.3221 O.3         1 ACR      -0.3407
     44 O6D       -20.6402  -12.6959   -0.7459 O.3         1 ACR      -0.3924
     45 H1        -20.7333   -7.7552   -8.4017 H           1 ACR       0.0950
     46 H2        -20.8429   -9.5640   -9.8417 H           1 ACR       0.0694
     47 H3        -18.3803   -8.5120  -11.3182 H           1 ACR       0.0671
     48 H4        -21.2817   -8.7230  -12.2960 H           1 ACR       0.0769
     49 H5        -22.5553   -5.9634  -12.0940 H           1 ACR       0.0706
     50 H6        -21.3129   -5.9416  -13.3383 H           1 ACR       0.0706
     51 H7        -20.8849   -5.8128   -9.7836 H           1 ACR       0.0299
     52 H8        -19.4286   -9.9301   -8.1684 H           1 ACR       0.2103
     53 H9        -19.0405  -10.1841  -12.8071 H           1 ACR       0.2102
     54 H10       -19.8198   -8.7917  -13.8991 H           1 ACR       0.2130
     55 H11       -20.3042   -4.3245  -12.3903 H           1 ACR       0.2125
     56 H12       -19.8056   -5.6590   -3.6336 H           1 ACR       0.0938
     57 H13       -18.5887   -4.4255   -5.3220 H           1 ACR       0.0672
     58 H14       -20.5310   -5.5571   -7.3694 H           1 ACR       0.0679
     59 H15       -17.5796   -6.2284   -7.1846 H           1 ACR       0.0903
     60 H16       -19.7764   -8.1756   -6.3533 H           1 ACR       0.0652
     61 H17       -17.9303   -9.4157   -5.2934 H           1 ACR       0.0257
     62 H18       -16.7556   -8.2394   -5.9122 H           1 ACR       0.0257
     63 H19       -17.6662   -9.2713   -7.0330 H           1 ACR       0.0257
     64 H20       -18.3831   -6.3976   -9.3232 H           1 ACR       0.2029
     65 H21       -18.0399   -7.8868   -8.7306 H           1 ACR       0.2029
     66 H22       -20.1467   -3.0222   -5.8523 H           1 ACR       0.2101
     67 H23       -18.6933   -3.5581   -7.3202 H           1 ACR       0.2102
     68 H24       -23.3104   -9.9598   -3.0666 H           1 ACR       0.0938
     69 H25       -24.2746   -9.3204   -5.2434 H           1 ACR       0.0671
     70 H26       -23.6557   -6.8475   -5.3108 H           1 ACR       0.0648
     71 H27       -22.3035   -6.0729   -3.2295 H           1 ACR       0.0651
     72 H28       -20.3439   -7.7837   -2.7948 H           1 ACR       0.0647
     73 H29       -21.5795   -7.1491   -0.9034 H           1 ACR       0.0584
     74 H30       -21.3918   -8.9073   -0.8967 H           1 ACR       0.0584
     75 H31       -21.5898   -8.7664   -5.8929 H           1 ACR       0.2101
     76 H32       -24.6888   -6.4472   -3.4873 H           1 ACR       0.2100
     77 H33       -23.6869   -7.4437   -1.6491 H           1 ACR       0.2095
     78 H34       -17.8289  -13.6167   -4.4086 H           1 ACR       0.0935
     79 H35       -19.5901  -13.6631   -6.0349 H           1 ACR       0.0671
     80 H36       -20.1451  -10.6935   -5.5937 H           1 ACR       0.0648
     81 H37       -21.7978  -13.0791   -4.6613 H           1 ACR       0.0651
     82 H38       -20.1493  -11.2168   -2.8779 H           1 ACR       0.0647
     83 H39       -21.8136  -13.6668   -2.1237 H           1 ACR       0.0584
     84 H40       -22.2699  -11.9876   -1.7732 H           1 ACR       0.0584
     85 H41       -16.9411  -11.7194   -4.4367 H           1 ACR       0.2126
     86 H42       -18.0166  -11.3410   -6.4279 H           1 ACR       0.2101
     87 H43       -21.2998  -10.9595   -7.2553 H           1 ACR       0.2100
     88 H44       -20.4553  -11.7543   -0.5358 H           1 ACR       0.2095
@<TRIPOS>BOND
     1     1     2   1
     2     1     7   1
     3    18     1   1
     4     2     3   1
     5     2     8   1
     6     3     4   1
     7     3     9   1
     8     5     4   1
     9     4    10   1
    10     5     6   1
    11     7     5   2
    12     6    11   1
    13    12    13   1
    14    12    21   1
    15    30    12   1
    16    13    14   1
    17    13    19   1
    18    14    15   1
    19    14    20   1
    20    16    15   1
    21    15    18   1
    22    16    17   1
    23    21    16   1
    24    22    23   1
    25    22    31   1
    26    42    22   1
    27    23    24   1
    28    23    28   1
    29    24    25   1
    30    24    29   1
    31    26    25   1
    32    25    30   1
    33    26    27   1
    34    31    26   1
    35    27    32   1
    36    34    33   1
    37    33    39   1
    38    33    43   1
    39    35    34   1
    40    34    40   1
    41    36    35   1
    42    35    41   1
    43    36    37   1
    44    36    42   1
    45    37    38   1
    46    37    43   1
    47    38    44   1
    48     1    45   1
    49     2    46   1
    50     3    47   1
    51     4    48   1
    52     6    49   1
    53     6    50   1
    54     7    51   1
    55     8    52   1
    56     9    53   1
    57    10    54   1
    58    11    55   1
    59    12    56   1
    60    13    57   1
    61    14    58   1
    62    15    59   1
    63    16    60   1
    64    17    61   1
    65    17    62   1
    66    17    63   1
    67    18    64   1
    68    18    65   1
    69    19    66   1
    70    20    67   1
    71    22    68   1
    72    23    69   1
    73    24    70   1
    74    25    71   1
    75    26    72   1
    76    27    73   1
    77    27    74   1
    78    28    75   1
    79    29    76   1
    80    32    77   1
    81    33    78   1
    82    34    79   1
    83    35    80   1
    84    36    81   1
    85    37    82   1
    86    38    83   1
    87    38    84   1
    88    39    85   1
    89    40    86   1
    90    41    87   1
    91    44    88   1
@<TRIPOS>SUBSTRUCTURE
     1  ACR      1

