@<TRIPOS>MOLECULE
2qmj_ligand_023
    88    91
SMALL
GAST_HUCK
****
This file was generated by PARSER (from files_GN.cpp)

@<TRIPOS>ATOM
      1 C1A       -19.5789   -6.0889  -10.5660 C.3         1 ACR       0.0141
      2 C2A       -20.7119   -5.7350  -11.5783 C.3         1 ACR       0.1303
      3 C3A       -21.6325   -6.9585  -11.7998 C.3         1 ACR       0.1215
      4 C4A       -20.7917   -8.1786  -12.2930 C.3         1 ACR       0.1112
      5 C5A       -19.4599   -8.3323  -11.6758 C.2         1 ACR      -0.0200
      6 C6A       -18.6693   -9.5166  -12.0481 C.3         1 ACR       0.0719
      7 C7A       -18.9191   -7.3479  -10.9190 C.2         1 ACR      -0.0543
      8 O2A       -21.4369   -4.5806  -11.1635 O.3         1 ACR      -0.3821
      9 O3A       -22.6579   -6.6378  -12.7438 O.3         1 ACR      -0.3843
     10 O4A       -21.6026   -9.3373  -12.0802 O.3         1 ACR      -0.3780
     11 O6A       -17.5785   -9.8594  -11.1883 O.3         1 ACR      -0.3839
     12 C1B       -18.0605   -6.0517   -5.2838 C.3         1 ACR       0.1886
     13 C2B       -17.1531   -5.9323   -6.5350 C.3         1 ACR       0.1370
     14 C3B       -17.9511   -5.5819   -7.8208 C.3         1 ACR       0.1304
     15 C4B       -19.2073   -6.4909   -8.0047 C.3         1 ACR       0.0341
     16 C5B       -20.0353   -6.4522   -6.6775 C.3         1 ACR       0.1038
     17 C6B       -21.2788   -7.3801   -6.6859 C.3         1 ACR      -0.0332
     18 N4B       -20.0858   -6.1151   -9.1599 N.4         1 ACR       0.2433
     19 O2B       -16.1256   -4.9681   -6.3018 O.3         1 ACR      -0.3840
     20 O3B       -17.0647   -5.7342   -8.9242 O.3         1 ACR      -0.3834
     21 O5B       -19.2180   -6.8622   -5.5649 O.3         1 ACR      -0.3401
     22 C1C       -18.6956   -2.8891   -0.9388 C.3         1 ACR       0.1884
     23 C2C       -17.6770   -2.3041   -1.9522 C.3         1 ACR       0.1341
     24 C3C       -17.9784   -2.8094   -3.3878 C.3         1 ACR       0.1144
     25 C4C       -18.0505   -4.3679   -3.4399 C.3         1 ACR       0.1184
     26 C5C       -19.0437   -4.8805   -2.3416 C.3         1 ACR       0.1134
     27 C6C       -19.0908   -6.4107   -2.1483 C.3         1 ACR       0.0730
     28 O2C       -17.6306   -0.8800   -1.9003 O.3         1 ACR      -0.3841
     29 O3C       -16.9689   -2.3307   -4.2830 O.3         1 ACR      -0.3864
     30 O4C       -18.4664   -4.7556   -4.7782 O.3         1 ACR      -0.3401
     31 O5C       -18.7094   -4.3292   -1.0491 O.3         1 ACR      -0.3405
     32 O6C       -17.7978   -6.9543   -1.8860 O.3         1 ACR      -0.3924
     33 C1D       -22.2632   -3.0218    2.5008 C.3         1 ACR       0.1854
     34 C2D       -22.5490   -3.9715    1.3072 C.3         1 ACR       0.1339
     35 C3D       -21.3889   -3.9159    0.2752 C.3         1 ACR       0.1144
     36 C4D       -21.0409   -2.4476   -0.1178 C.3         1 ACR       0.1184
     37 C5D       -20.8052   -1.5907    1.1721 C.3         1 ACR       0.1134
     38 C6D       -20.6021   -0.0905    0.8733 C.3         1 ACR       0.0730
     39 O1D       -21.2256   -3.5361    3.3447 O.3         1 ACR      -0.3649
     40 O2D       -22.7379   -5.3061    1.7719 O.3         1 ACR      -0.3841
     41 O3D       -21.7714   -4.6747   -0.8808 O.3         1 ACR      -0.3864
     42 O4D       -20.0093   -2.3179   -1.1321 O.3         1 ACR      -0.3401
     43 O5D       -21.9538   -1.6855    2.0495 O.3         1 ACR      -0.3407
     44 O6D       -19.2627    0.2007    0.4674 O.3         1 ACR      -0.3924
     45 H1        -18.8545   -5.2781  -10.6497 H           1 ACR       0.0950
     46 H2        -20.2592   -5.4832  -12.5391 H           1 ACR       0.0694
     47 H3        -22.1234   -7.2052  -10.8490 H           1 ACR       0.0671
     48 H4        -20.6427   -8.0711  -13.3718 H           1 ACR       0.0769
     49 H5        -18.2554   -9.3614  -13.0478 H           1 ACR       0.0706
     50 H6        -19.3108  -10.3997  -12.0882 H           1 ACR       0.0706
     51 H7        -18.0003   -7.4755  -10.5514 H           1 ACR       0.0299
     52 H8        -22.2935   -4.9152  -10.8238 H           1 ACR       0.2103
     53 H9        -23.1314   -7.4837  -12.9167 H           1 ACR       0.2102
     54 H10       -21.4353   -9.9194  -12.8501 H           1 ACR       0.2130
     55 H11       -17.9677   -9.9344  -10.2907 H           1 ACR       0.2125
     56 H12       -17.4972   -6.6086   -4.5299 H           1 ACR       0.0938
     57 H13       -16.6631   -6.9010   -6.6835 H           1 ACR       0.0672
     58 H14       -18.2662   -4.5318   -7.7766 H           1 ACR       0.0679
     59 H15       -18.8658   -7.5187   -8.1472 H           1 ACR       0.0903
     60 H16       -20.3973   -5.4390   -6.5033 H           1 ACR       0.0652
     61 H17       -21.7411   -7.4000   -5.6968 H           1 ACR       0.0257
     62 H18       -21.0009   -8.4024   -6.9598 H           1 ACR       0.0257
     63 H19       -22.0255   -7.0156   -7.3936 H           1 ACR       0.0257
     64 H20       -20.8519   -6.7937   -9.1655 H           1 ACR       0.2029
     65 H21       -20.5009   -5.2088   -8.9381 H           1 ACR       0.2029
     66 H22       -16.5409   -4.0933   -6.4755 H           1 ACR       0.2101
     67 H23       -16.1622   -5.7627   -8.5270 H           1 ACR       0.2102
     68 H24       -18.3359   -2.6464    0.0641 H           1 ACR       0.0938
     69 H25       -16.6864   -2.6590   -1.6524 H           1 ACR       0.0671
     70 H26       -18.9341   -2.3878   -3.7191 H           1 ACR       0.0648
     71 H27       -17.0419   -4.7318   -3.2155 H           1 ACR       0.0651
     72 H28       -20.0479   -4.5578   -2.6240 H           1 ACR       0.0647
     73 H29       -19.5134   -6.9013   -3.0276 H           1 ACR       0.0584
     74 H30       -19.7330   -6.6503   -1.3028 H           1 ACR       0.0584
     75 H31       -18.0509   -0.5570   -2.7254 H           1 ACR       0.2101
     76 H32       -16.1261   -2.7050   -3.9501 H           1 ACR       0.2100
     77 H33       -17.9426   -7.9229   -1.7839 H           1 ACR       0.2095
     78 H34       -23.1708   -2.9521    3.1069 H           1 ACR       0.0935
     79 H35       -23.4664   -3.6484    0.8190 H           1 ACR       0.0671
     80 H36       -20.5025   -4.3997    0.7137 H           1 ACR       0.0648
     81 H37       -21.9425   -2.0455   -0.5989 H           1 ACR       0.0651
     82 H38       -19.9187   -1.9449    1.7011 H           1 ACR       0.0647
     83 H39       -20.8090    0.4922    1.7819 H           1 ACR       0.0584
     84 H40       -21.2861    0.2392    0.0787 H           1 ACR       0.0584
     85 H41       -21.0397   -2.8133    3.9772 H           1 ACR       0.2126
     86 H42       -21.8937   -5.5589    2.2052 H           1 ACR       0.2101
     87 H43       -22.5330   -4.1900   -1.2680 H           1 ACR       0.2100
     88 H44       -18.7002    0.0282    1.2514 H           1 ACR       0.2095
@<TRIPOS>BOND
     1     1     2   1
     2     1     7   1
     3    18     1   1
     4     2     3   1
     5     2     8   1
     6     3     4   1
     7     3     9   1
     8     5     4   1
     9     4    10   1
    10     5     6   1
    11     7     5   2
    12     6    11   1
    13    12    13   1
    14    12    21   1
    15    30    12   1
    16    13    14   1
    17    13    19   1
    18    14    15   1
    19    14    20   1
    20    16    15   1
    21    15    18   1
    22    16    17   1
    23    21    16   1
    24    22    23   1
    25    22    31   1
    26    42    22   1
    27    23    24   1
    28    23    28   1
    29    24    25   1
    30    24    29   1
    31    26    25   1
    32    25    30   1
    33    26    27   1
    34    31    26   1
    35    27    32   1
    36    34    33   1
    37    33    39   1
    38    33    43   1
    39    35    34   1
    40    34    40   1
    41    36    35   1
    42    35    41   1
    43    36    37   1
    44    36    42   1
    45    37    38   1
    46    37    43   1
    47    38    44   1
    48     1    45   1
    49     2    46   1
    50     3    47   1
    51     4    48   1
    52     6    49   1
    53     6    50   1
    54     7    51   1
    55     8    52   1
    56     9    53   1
    57    10    54   1
    58    11    55   1
    59    12    56   1
    60    13    57   1
    61    14    58   1
    62    15    59   1
    63    16    60   1
    64    17    61   1
    65    17    62   1
    66    17    63   1
    67    18    64   1
    68    18    65   1
    69    19    66   1
    70    20    67   1
    71    22    68   1
    72    23    69   1
    73    24    70   1
    74    25    71   1
    75    26    72   1
    76    27    73   1
    77    27    74   1
    78    28    75   1
    79    29    76   1
    80    32    77   1
    81    33    78   1
    82    34    79   1
    83    35    80   1
    84    36    81   1
    85    37    82   1
    86    38    83   1
    87    38    84   1
    88    39    85   1
    89    40    86   1
    90    41    87   1
    91    44    88   1
@<TRIPOS>SUBSTRUCTURE
     1  ACR      1

