@<TRIPOS>MOLECULE
2qmj_ligand_068
    88    91
SMALL
GAST_HUCK
****
This file was generated by PARSER (from files_GN.cpp)

@<TRIPOS>ATOM
      1 C1A       -19.6036   -6.1435  -10.6925 C.3         1 ACR       0.0141
      2 C2A       -20.7344   -5.7754  -11.7004 C.3         1 ACR       0.1303
      3 C3A       -21.6782   -6.9867  -11.9065 C.3         1 ACR       0.1215
      4 C4A       -20.8682   -8.2427  -12.3614 C.3         1 ACR       0.1112
      5 C5A       -19.5092   -8.3787  -11.8045 C.2         1 ACR      -0.0200
      6 C6A       -18.7246   -9.5900  -12.0743 C.3         1 ACR       0.0719
      7 C7A       -18.9466   -7.3941  -11.0681 C.2         1 ACR      -0.0543
      8 O2A       -21.4368   -4.6016  -11.2932 O.3         1 ACR      -0.3821
      9 O3A       -22.6770   -6.6675  -12.8774 O.3         1 ACR      -0.3843
     10 O4A       -21.6623   -9.3848  -12.0304 O.3         1 ACR      -0.3780
     11 O6A       -17.3981   -9.2974  -12.5230 O.3         1 ACR      -0.3839
     12 C1B       -18.6064   -6.6505   -5.2790 C.3         1 ACR       0.1886
     13 C2B       -17.9711   -5.5337   -6.1449 C.3         1 ACR       0.1370
     14 C3B       -18.8439   -5.2363   -7.3920 C.3         1 ACR       0.1304
     15 C4B       -19.1370   -6.5344   -8.2010 C.3         1 ACR       0.0341
     16 C5B       -19.6725   -7.6511   -7.2480 C.3         1 ACR       0.1038
     17 C6B       -19.7710   -9.0356   -7.9422 C.3         1 ACR      -0.0332
     18 N4B       -20.1181   -6.2476   -9.2949 N.4         1 ACR       0.2433
     19 O2B       -17.7821   -4.3595   -5.3606 O.3         1 ACR      -0.3840
     20 O3B       -18.1949   -4.2835   -8.2345 O.3         1 ACR      -0.3834
     21 O5B       -18.8059   -7.8242   -6.1005 O.3         1 ACR      -0.3401
     22 C1C       -20.0479   -7.8975   -0.7149 C.3         1 ACR       0.1884
     23 C2C       -20.4581   -8.8419   -1.8781 C.3         1 ACR       0.1341
     24 C3C       -19.9444   -8.2989   -3.2373 C.3         1 ACR       0.1144
     25 C4C       -20.3467   -6.8046   -3.4527 C.3         1 ACR       0.1184
     26 C5C       -20.0135   -5.9312   -2.1954 C.3         1 ACR       0.1134
     27 C6C       -20.6483   -4.5157   -2.2272 C.3         1 ACR       0.0730
     28 O2C       -20.0086  -10.1771   -1.6549 O.3         1 ACR      -0.3841
     29 O3C       -20.4634   -9.0926   -4.3053 O.3         1 ACR      -0.3864
     30 O4C       -19.8521   -6.2145   -4.6803 O.3         1 ACR      -0.3401
     31 O5C       -20.5220   -6.5658   -0.9969 O.3         1 ACR      -0.3405
     32 O6C       -20.1065   -3.6802   -3.2421 O.3         1 ACR      -0.3924
     33 C1D       -15.7689   -8.9710    2.4783 C.3         1 ACR       0.1854
     34 C2D       -15.7363   -9.7215    1.1204 C.3         1 ACR       0.1339
     35 C3D       -16.5631   -8.9599    0.0497 C.3         1 ACR       0.1144
     36 C4D       -18.0051   -8.6382    0.5470 C.3         1 ACR       0.1184
     37 C5D       -17.9101   -7.9103    1.9324 C.3         1 ACR       0.1134
     38 C6D       -19.2856   -7.6445    2.5908 C.3         1 ACR       0.0730
     39 O1D       -15.0064   -7.7589    2.4590 O.3         1 ACR      -0.3649
     40 O2D       -14.3899   -9.9187    0.6742 O.3         1 ACR      -0.3841
     41 O3D       -16.6029   -9.7446   -1.1413 O.3         1 ACR      -0.3864
     42 O4D       -18.6230   -7.8130   -0.4673 O.3         1 ACR      -0.3401
     43 O5D       -17.1338   -8.7011    2.8682 O.3         1 ACR      -0.3407
     44 O6D       -19.1386   -7.2043    3.9384 O.3         1 ACR      -0.3924
     45 H1        -18.8699   -5.3347  -10.7400 H           1 ACR       0.0950
     46 H2        -20.2812   -5.5383  -12.6654 H           1 ACR       0.0694
     47 H3        -22.1887   -7.1964  -10.9608 H           1 ACR       0.0671
     48 H4        -20.7666   -8.2088  -13.4508 H           1 ACR       0.0769
     49 H5        -19.1868  -10.2110  -12.8416 H           1 ACR       0.0706
     50 H6        -18.6598  -10.1885  -11.1625 H           1 ACR       0.0706
     51 H7        -18.0334   -7.5400  -10.6981 H           1 ACR       0.0299
     52 H8        -22.2516   -4.9130  -10.8533 H           1 ACR       0.2103
     53 H9        -23.1922   -7.4951  -13.0022 H           1 ACR       0.2102
     54 H10       -21.5362  -10.0163  -12.7690 H           1 ACR       0.2130
     55 H11       -16.8518   -9.2300  -11.7154 H           1 ACR       0.2125
     56 H12       -17.8889   -6.9066   -4.4935 H           1 ACR       0.0938
     57 H13       -16.9856   -5.8770   -6.4761 H           1 ACR       0.0672
     58 H14       -19.7884   -4.7993   -7.0600 H           1 ACR       0.0679
     59 H15       -18.1814   -6.8831   -8.6053 H           1 ACR       0.0903
     60 H16       -20.6786   -7.3819   -6.9043 H           1 ACR       0.0652
     61 H17       -20.1158   -9.7860   -7.2270 H           1 ACR       0.0257
     62 H18       -18.7938   -9.3401   -8.3205 H           1 ACR       0.0257
     63 H19       -20.4789   -9.0102   -8.7719 H           1 ACR       0.0257
     64 H20       -20.8302   -6.9799   -9.2906 H           1 ACR       0.2029
     65 H21       -20.5954   -5.3736   -9.0551 H           1 ACR       0.2029
     66 H22       -17.4972   -3.6695   -5.9976 H           1 ACR       0.2101
     67 H23       -17.2415   -4.5105   -8.2092 H           1 ACR       0.2102
     68 H24       -20.5748   -8.2237    0.1835 H           1 ACR       0.0938
     69 H25       -21.5510   -8.8812   -1.9108 H           1 ACR       0.0671
     70 H26       -18.8572   -8.3927   -3.2429 H           1 ACR       0.0648
     71 H27       -21.4355   -6.7937   -3.5550 H           1 ACR       0.0651
     72 H28       -18.9297   -5.8136   -2.1065 H           1 ACR       0.0647
     73 H29       -20.4622   -4.0215   -1.2702 H           1 ACR       0.0584
     74 H30       -21.7262   -4.5899   -2.3722 H           1 ACR       0.0584
     75 H31       -19.0297  -10.1268   -1.6353 H           1 ACR       0.2101
     76 H32       -20.0299   -9.9710   -4.2202 H           1 ACR       0.2100
     77 H33       -20.3776   -4.0909   -4.0894 H           1 ACR       0.2095
     78 H34       -15.3366   -9.6183    3.2444 H           1 ACR       0.0935
     79 H35       -16.1793  -10.7124    1.2697 H           1 ACR       0.0671
     80 H36       -16.0462   -8.0219   -0.1824 H           1 ACR       0.0648
     81 H37       -18.5420   -9.5843    0.6749 H           1 ACR       0.0651
     82 H38       -17.4285   -6.9362    1.7894 H           1 ACR       0.0647
     83 H39       -19.8946   -8.5530    2.5831 H           1 ACR       0.0584
     84 H40       -19.8138   -6.8584    2.0539 H           1 ACR       0.0584
     85 H41       -14.0700   -8.0403    2.5347 H           1 ACR       0.2126
     86 H42       -14.0618   -9.0272    0.4312 H           1 ACR       0.2101
     87 H43       -16.9112   -9.1299   -1.8379 H           1 ACR       0.2100
     88 H44       -18.7972   -7.9801    4.4334 H           1 ACR       0.2095
@<TRIPOS>BOND
     1     1     2   1
     2     1     7   1
     3    18     1   1
     4     2     3   1
     5     2     8   1
     6     3     4   1
     7     3     9   1
     8     5     4   1
     9     4    10   1
    10     5     6   1
    11     7     5   2
    12     6    11   1
    13    12    13   1
    14    12    21   1
    15    30    12   1
    16    13    14   1
    17    13    19   1
    18    14    15   1
    19    14    20   1
    20    16    15   1
    21    15    18   1
    22    16    17   1
    23    21    16   1
    24    22    23   1
    25    22    31   1
    26    42    22   1
    27    23    24   1
    28    23    28   1
    29    24    25   1
    30    24    29   1
    31    26    25   1
    32    25    30   1
    33    26    27   1
    34    31    26   1
    35    27    32   1
    36    34    33   1
    37    33    39   1
    38    33    43   1
    39    35    34   1
    40    34    40   1
    41    36    35   1
    42    35    41   1
    43    36    37   1
    44    36    42   1
    45    37    38   1
    46    37    43   1
    47    38    44   1
    48     1    45   1
    49     2    46   1
    50     3    47   1
    51     4    48   1
    52     6    49   1
    53     6    50   1
    54     7    51   1
    55     8    52   1
    56     9    53   1
    57    10    54   1
    58    11    55   1
    59    12    56   1
    60    13    57   1
    61    14    58   1
    62    15    59   1
    63    16    60   1
    64    17    61   1
    65    17    62   1
    66    17    63   1
    67    18    64   1
    68    18    65   1
    69    19    66   1
    70    20    67   1
    71    22    68   1
    72    23    69   1
    73    24    70   1
    74    25    71   1
    75    26    72   1
    76    27    73   1
    77    27    74   1
    78    28    75   1
    79    29    76   1
    80    32    77   1
    81    33    78   1
    82    34    79   1
    83    35    80   1
    84    36    81   1
    85    37    82   1
    86    38    83   1
    87    38    84   1
    88    39    85   1
    89    40    86   1
    90    41    87   1
    91    44    88   1
@<TRIPOS>SUBSTRUCTURE
     1  ACR      1

