@<TRIPOS>MOLECULE
2qmj_ligand_041
    88    91
SMALL
GAST_HUCK
****
This file was generated by PARSER (from files_GN.cpp)

@<TRIPOS>ATOM
      1 C1A       -19.6681   -5.6710  -11.0089 C.3         1 ACR       0.0141
      2 C2A       -20.8918   -5.4579  -11.9519 C.3         1 ACR       0.1303
      3 C3A       -21.6181   -6.8104  -12.1825 C.3         1 ACR       0.1215
      4 C4A       -20.6226   -7.9012  -12.6974 C.3         1 ACR       0.1112
      5 C5A       -19.2146   -7.7497  -12.3001 C.2         1 ACR      -0.0200
      6 C6A       -18.2158   -8.6918  -12.8037 C.3         1 ACR       0.0719
      7 C7A       -18.7963   -6.7081  -11.5473 C.2         1 ACR      -0.0543
      8 O2A       -21.7705   -4.4522  -11.4491 O.3         1 ACR      -0.3821
      9 O3A       -22.6932   -6.6332  -13.1055 O.3         1 ACR      -0.3843
     10 O4A       -21.1020   -9.1680  -12.2420 O.3         1 ACR      -0.3780
     11 O6A       -17.4241   -8.0928  -13.8282 O.3         1 ACR      -0.3839
     12 C1B       -18.7478   -7.4564   -5.8153 C.3         1 ACR       0.1886
     13 C2B       -18.4290   -5.9621   -6.1188 C.3         1 ACR       0.1370
     14 C3B       -19.2513   -5.4314   -7.3280 C.3         1 ACR       0.1304
     15 C4B       -19.1475   -6.3750   -8.5643 C.3         1 ACR       0.0341
     16 C5B       -19.4374   -7.8408   -8.1091 C.3         1 ACR       0.1038
     17 C6B       -19.2548   -8.9132   -9.2042 C.3         1 ACR      -0.0332
     18 N4B       -20.1250   -5.9540   -9.6144 N.4         1 ACR       0.2433
     19 O2B       -18.6517   -5.1582   -4.9595 O.3         1 ACR      -0.3840
     20 O3B       -18.8092   -4.1320   -7.7188 O.3         1 ACR      -0.3834
     21 O5B       -18.5677   -8.2208   -7.0194 O.3         1 ACR      -0.3401
     22 C1C       -20.4831  -11.8277   -4.1545 C.3         1 ACR       0.1884
     23 C2C       -21.2476  -11.3530   -5.4213 C.3         1 ACR       0.1341
     24 C3C       -20.6734  -10.0054   -5.9447 C.3         1 ACR       0.1144
     25 C4C       -20.5819   -8.9251   -4.8223 C.3         1 ACR       0.1184
     26 C5C       -19.8622   -9.5145   -3.5688 C.3         1 ACR       0.1134
     27 C6C       -19.9273   -8.5558   -2.3521 C.3         1 ACR       0.0730
     28 O2C       -21.2196  -12.3439   -6.4530 O.3         1 ACR      -0.3841
     29 O3C       -21.5177   -9.5246   -6.9899 O.3         1 ACR      -0.3864
     30 O4C       -20.0723   -7.6277   -5.2472 O.3         1 ACR      -0.3401
     31 O5C       -20.4619  -10.7682   -3.1691 O.3         1 ACR      -0.3405
     32 O6C       -19.2970   -9.1438   -1.2173 O.3         1 ACR      -0.3924
     33 C1D       -16.2932  -14.4608   -2.1395 C.3         1 ACR       0.1854
     34 C2D       -17.4570  -13.8252   -1.3393 C.3         1 ACR       0.1339
     35 C3D       -18.6441  -13.4453   -2.2670 C.3         1 ACR       0.1144
     36 C4D       -18.1720  -12.5885   -3.4851 C.3         1 ACR       0.1184
     37 C5D       -16.9592  -13.2939   -4.1788 C.3         1 ACR       0.1134
     38 C6D       -16.2957  -12.4525   -5.3016 C.3         1 ACR       0.0730
     39 O1D       -16.6215  -15.7714   -2.6027 O.3         1 ACR      -0.3649
     40 O2D       -17.8878  -14.7019   -0.2966 O.3         1 ACR      -0.3841
     41 O3D       -19.5916  -12.7239   -1.4793 O.3         1 ACR      -0.3864
     42 O4D       -19.1813  -12.3582   -4.4993 O.3         1 ACR      -0.3401
     43 O5D       -15.9132  -13.5986   -3.2288 O.3         1 ACR      -0.3407
     44 O6D       -17.0270  -12.4959   -6.5239 O.3         1 ACR      -0.3924
     45 H1        -19.1003   -4.7374  -10.9932 H           1 ACR       0.0950
     46 H2        -20.5395   -5.0937  -12.9207 H           1 ACR       0.0694
     47 H3        -22.0637   -7.1322  -11.2360 H           1 ACR       0.0671
     48 H4        -20.6473   -7.8931  -13.7925 H           1 ACR       0.0769
     49 H5        -18.6786   -9.5833  -13.2259 H           1 ACR       0.0706
     50 H6        -17.5570   -9.0257  -11.9979 H           1 ACR       0.0706
     51 H7        -17.8280   -6.6330  -11.3301 H           1 ACR       0.0299
     52 H8        -22.4696   -4.9316  -10.9639 H           1 ACR       0.2103
     53 H9        -23.1084   -7.5185  -13.1911 H           1 ACR       0.2102
     54 H10       -21.2612   -9.7012  -13.0470 H           1 ACR       0.2130
     55 H11       -17.6063   -7.1289  -13.7842 H           1 ACR       0.2125
     56 H12       -17.9970   -7.7987   -5.1005 H           1 ACR       0.0938
     57 H13       -17.3661   -5.8825   -6.3676 H           1 ACR       0.0672
     58 H14       -20.2954   -5.3508   -7.0175 H           1 ACR       0.0679
     59 H15       -18.1187   -6.3201   -8.9300 H           1 ACR       0.0903
     60 H16       -20.4825   -7.9042   -7.7908 H           1 ACR       0.0652
     61 H17       -19.3794   -9.9062   -8.7721 H           1 ACR       0.0257
     62 H18       -18.2606   -8.8491   -9.6453 H           1 ACR       0.0257
     63 H19       -20.0096   -8.7919   -9.9802 H           1 ACR       0.0257
     64 H20       -20.8408   -6.6811   -9.6684 H           1 ACR       0.2029
     65 H21       -20.5935   -5.1113   -9.2669 H           1 ACR       0.2029
     66 H22       -19.6092   -5.2439   -4.7689 H           1 ACR       0.2101
     67 H23       -18.9793   -3.5288   -6.9657 H           1 ACR       0.2102
     68 H24       -21.0649  -12.6501   -3.7271 H           1 ACR       0.0938
     69 H25       -22.2978  -11.2046   -5.1482 H           1 ACR       0.0671
     70 H26       -19.6773  -10.1944   -6.3555 H           1 ACR       0.0648
     71 H27       -21.6143   -8.7187   -4.5212 H           1 ACR       0.0651
     72 H28       -18.8096   -9.6931   -3.8039 H           1 ACR       0.0647
     73 H29       -20.9667   -8.3361   -2.0960 H           1 ACR       0.0584
     74 H30       -19.4175   -7.6172   -2.5784 H           1 ACR       0.0584
     75 H31       -20.2719  -12.4728   -6.6706 H           1 ACR       0.2101
     76 H32       -21.3751  -10.1484   -7.7360 H           1 ACR       0.2100
     77 H33       -19.3875   -8.4766   -0.5023 H           1 ACR       0.2095
     78 H34       -15.4287  -14.5567   -1.4772 H           1 ACR       0.0935
     79 H35       -17.0817  -12.9119   -0.8656 H           1 ACR       0.0671
     80 H36       -19.1291  -14.3537   -2.6346 H           1 ACR       0.0648
     81 H37       -17.8279  -11.6220   -3.1080 H           1 ACR       0.0651
     82 H38       -17.2990  -14.2298   -4.6352 H           1 ACR       0.0647
     83 H39       -15.2991  -12.8496   -5.5132 H           1 ACR       0.0584
     84 H40       -16.1849  -11.4123   -4.9876 H           1 ACR       0.0584
     85 H41       -15.9319  -15.9852   -3.2658 H           1 ACR       0.2126
     86 H42       -18.2183  -15.5058   -0.7512 H           1 ACR       0.2101
     87 H43       -20.0409  -13.3952   -0.9241 H           1 ACR       0.2100
     88 H44       -17.5393  -13.3328   -6.4851 H           1 ACR       0.2095
@<TRIPOS>BOND
     1     1     2   1
     2     1     7   1
     3    18     1   1
     4     2     3   1
     5     2     8   1
     6     3     4   1
     7     3     9   1
     8     5     4   1
     9     4    10   1
    10     5     6   1
    11     7     5   2
    12     6    11   1
    13    12    13   1
    14    12    21   1
    15    30    12   1
    16    13    14   1
    17    13    19   1
    18    14    15   1
    19    14    20   1
    20    16    15   1
    21    15    18   1
    22    16    17   1
    23    21    16   1
    24    22    23   1
    25    22    31   1
    26    42    22   1
    27    23    24   1
    28    23    28   1
    29    24    25   1
    30    24    29   1
    31    26    25   1
    32    25    30   1
    33    26    27   1
    34    31    26   1
    35    27    32   1
    36    34    33   1
    37    33    39   1
    38    33    43   1
    39    35    34   1
    40    34    40   1
    41    36    35   1
    42    35    41   1
    43    36    37   1
    44    36    42   1
    45    37    38   1
    46    37    43   1
    47    38    44   1
    48     1    45   1
    49     2    46   1
    50     3    47   1
    51     4    48   1
    52     6    49   1
    53     6    50   1
    54     7    51   1
    55     8    52   1
    56     9    53   1
    57    10    54   1
    58    11    55   1
    59    12    56   1
    60    13    57   1
    61    14    58   1
    62    15    59   1
    63    16    60   1
    64    17    61   1
    65    17    62   1
    66    17    63   1
    67    18    64   1
    68    18    65   1
    69    19    66   1
    70    20    67   1
    71    22    68   1
    72    23    69   1
    73    24    70   1
    74    25    71   1
    75    26    72   1
    76    27    73   1
    77    27    74   1
    78    28    75   1
    79    29    76   1
    80    32    77   1
    81    33    78   1
    82    34    79   1
    83    35    80   1
    84    36    81   1
    85    37    82   1
    86    38    83   1
    87    38    84   1
    88    39    85   1
    89    40    86   1
    90    41    87   1
    91    44    88   1
@<TRIPOS>SUBSTRUCTURE
     1  ACR      1

