@<TRIPOS>MOLECULE
2qmj_ligand_025
    88    91
SMALL
GAST_HUCK
****
This file was generated by PARSER (from files_GN.cpp)

@<TRIPOS>ATOM
      1 C1A       -19.6361   -6.2235  -10.7636 C.3         1 ACR       0.0141
      2 C2A       -20.7865   -5.8069  -11.7277 C.3         1 ACR       0.1303
      3 C3A       -21.7793   -6.9856  -11.9014 C.3         1 ACR       0.1215
      4 C4A       -21.0382   -8.2743  -12.3805 C.3         1 ACR       0.1112
      5 C5A       -19.6625   -8.4547  -11.8778 C.2         1 ACR      -0.0200
      6 C6A       -18.9345   -9.6935  -12.1618 C.3         1 ACR       0.0719
      7 C7A       -19.0203   -7.4708  -11.2080 C.2         1 ACR      -0.0543
      8 O2A       -21.4305   -4.6188  -11.2681 O.3         1 ACR      -0.3821
      9 O3A       -22.8065   -6.6254  -12.8255 O.3         1 ACR      -0.3843
     10 O4A       -21.8596   -9.3885  -12.0229 O.3         1 ACR      -0.3780
     11 O6A       -17.8067   -9.4427  -12.9981 O.3         1 ACR      -0.3839
     12 C1B       -18.4259   -6.8465   -5.4161 C.3         1 ACR       0.1886
     13 C2B       -18.0442   -5.5509   -6.1780 C.3         1 ACR       0.1370
     14 C3B       -19.0239   -5.3142   -7.3587 C.3         1 ACR       0.1304
     15 C4B       -19.0968   -6.5659   -8.2804 C.3         1 ACR       0.0341
     16 C5B       -19.4150   -7.8344   -7.4280 C.3         1 ACR       0.1038
     17 C6B       -19.3167   -9.1585   -8.2279 C.3         1 ACR      -0.0332
     18 N4B       -20.1161   -6.3553   -9.3541 N.4         1 ACR       0.2433
     19 O2B       -18.0268   -4.4366   -5.2848 O.3         1 ACR      -0.3840
     20 O3B       -18.6057   -4.1882   -8.1278 O.3         1 ACR      -0.3834
     21 O5B       -18.4759   -7.9549   -6.3330 O.3         1 ACR      -0.3401
     22 C1C       -17.4920   -8.3405   -2.0571 C.3         1 ACR       0.1884
     23 C2C       -18.2182   -9.3050   -3.0490 C.3         1 ACR       0.1341
     24 C3C       -19.6798   -8.8896   -3.4134 C.3         1 ACR       0.1144
     25 C4C       -19.9531   -7.3518   -3.4498 C.3         1 ACR       0.1184
     26 C5C       -19.2640   -6.5850   -2.2825 C.3         1 ACR       0.1134
     27 C6C       -19.9868   -6.5687   -0.9035 C.3         1 ACR       0.0730
     28 O2C       -17.4686   -9.4873   -4.2477 O.3         1 ACR      -0.3841
     29 O3C       -20.5783   -9.5326   -2.5042 O.3         1 ACR      -0.3864
     30 O4C       -19.6860   -6.7035   -4.7222 O.3         1 ACR      -0.3401
     31 O5C       -17.8821   -6.9554   -2.1851 O.3         1 ACR      -0.3405
     32 O6C       -20.0720   -7.8298   -0.2520 O.3         1 ACR      -0.3924
     33 C1D       -12.6161   -5.9947   -2.6868 C.3         1 ACR       0.1854
     34 C2D       -13.7494   -5.4793   -1.7608 C.3         1 ACR       0.1339
     35 C3D       -14.6814   -6.6437   -1.3296 C.3         1 ACR       0.1144
     36 C4D       -15.1944   -7.4200   -2.5806 C.3         1 ACR       0.1184
     37 C5D       -13.9637   -7.9100   -3.4100 C.3         1 ACR       0.1134
     38 C6D       -14.3362   -8.6589   -4.7170 C.3         1 ACR       0.0730
     39 O1D       -11.6459   -6.7483   -1.9609 O.3         1 ACR      -0.3649
     40 O2D       -13.1916   -4.8214   -0.6224 O.3         1 ACR      -0.3841
     41 O3D       -15.7545   -6.1050   -0.5591 O.3         1 ACR      -0.3864
     42 O4D       -16.0535   -8.5223   -2.1910 O.3         1 ACR      -0.3401
     43 O5D       -13.1431   -6.7756   -3.7813 O.3         1 ACR      -0.3407
     44 O6D       -15.4249   -8.0570   -5.4123 O.3         1 ACR      -0.3924
     45 H1        -18.8867   -5.4259  -10.8034 H           1 ACR       0.0950
     46 H2        -20.3614   -5.5674  -12.7076 H           1 ACR       0.0694
     47 H3        -22.2629   -7.1769  -10.9377 H           1 ACR       0.0671
     48 H4        -20.9755   -8.2434  -13.4727 H           1 ACR       0.0769
     49 H5        -19.5541  -10.4370  -12.6633 H           1 ACR       0.0706
     50 H6        -18.5884  -10.1399  -11.2246 H           1 ACR       0.0706
     51 H7        -18.0767   -7.6246  -10.9244 H           1 ACR       0.0299
     52 H8        -22.2698   -4.9157  -10.8681 H           1 ACR       0.2103
     53 H9        -23.2820   -7.4613  -13.0201 H           1 ACR       0.2102
     54 H10       -21.7738  -10.0224  -12.7640 H           1 ACR       0.2130
     55 H11       -17.2952  -10.2791  -12.9844 H           1 ACR       0.2125
     56 H12       -17.6147   -7.0291   -4.7241 H           1 ACR       0.0938
     57 H13       -17.0298   -5.6658   -6.5766 H           1 ACR       0.0672
     58 H14       -20.0139   -5.0920   -6.9500 H           1 ACR       0.0679
     59 H15       -18.0987   -6.7014   -8.7089 H           1 ACR       0.0903
     60 H16       -20.4329   -7.7643   -7.0291 H           1 ACR       0.0652
     61 H17       -19.4787  -10.0106   -7.5638 H           1 ACR       0.0257
     62 H18       -18.3280   -9.2612   -8.6811 H           1 ACR       0.0257
     63 H19       -20.0735   -9.1972   -9.0135 H           1 ACR       0.0257
     64 H20       -20.7754   -7.1351   -9.3268 H           1 ACR       0.2029
     65 H21       -20.6474   -5.5141   -9.1151 H           1 ACR       0.2029
     66 H22       -17.6152   -3.7068   -5.7932 H           1 ACR       0.2101
     67 H23       -18.3878   -3.4757   -7.4897 H           1 ACR       0.2102
     68 H24       -17.7385   -8.6502   -1.0363 H           1 ACR       0.0938
     69 H25       -18.2511  -10.2990   -2.5864 H           1 ACR       0.0671
     70 H26       -19.9302   -9.2977   -4.3971 H           1 ACR       0.0648
     71 H27       -21.0294   -7.2109   -3.3328 H           1 ACR       0.0651
     72 H28       -19.2436   -5.5311   -2.5830 H           1 ACR       0.0647
     73 H29       -20.9987   -6.1706   -1.0205 H           1 ACR       0.0584
     74 H30       -19.4411   -5.9009   -0.2344 H           1 ACR       0.0584
     75 H31       -16.7449  -10.1046   -4.0020 H           1 ACR       0.2101
     76 H32       -21.4717   -9.4398   -2.9065 H           1 ACR       0.2100
     77 H33       -20.6146   -8.3885   -0.8469 H           1 ACR       0.2095
     78 H34       -12.1031   -5.1296   -3.1120 H           1 ACR       0.0935
     79 H35       -14.3370   -4.7401   -2.3158 H           1 ACR       0.0671
     80 H36       -14.1256   -7.3300   -0.6825 H           1 ACR       0.0648
     81 H37       -15.7312   -6.7203   -3.2263 H           1 ACR       0.0651
     82 H38       -13.3697   -8.6025   -2.8038 H           1 ACR       0.0647
     83 H39       -14.6000   -9.6918   -4.4899 H           1 ACR       0.0584
     84 H40       -13.4740   -8.6793   -5.3880 H           1 ACR       0.0584
     85 H41       -11.0023   -7.0484   -2.6379 H           1 ACR       0.2126
     86 H42       -13.9448   -4.3600   -0.1958 H           1 ACR       0.2101
     87 H43       -16.2050   -6.8797   -0.1638 H           1 ACR       0.2100
     88 H44       -15.1246   -7.1498   -5.6290 H           1 ACR       0.2095
@<TRIPOS>BOND
     1     1     2   1
     2     1     7   1
     3    18     1   1
     4     2     3   1
     5     2     8   1
     6     3     4   1
     7     3     9   1
     8     5     4   1
     9     4    10   1
    10     5     6   1
    11     7     5   2
    12     6    11   1
    13    12    13   1
    14    12    21   1
    15    30    12   1
    16    13    14   1
    17    13    19   1
    18    14    15   1
    19    14    20   1
    20    16    15   1
    21    15    18   1
    22    16    17   1
    23    21    16   1
    24    22    23   1
    25    22    31   1
    26    42    22   1
    27    23    24   1
    28    23    28   1
    29    24    25   1
    30    24    29   1
    31    26    25   1
    32    25    30   1
    33    26    27   1
    34    31    26   1
    35    27    32   1
    36    34    33   1
    37    33    39   1
    38    33    43   1
    39    35    34   1
    40    34    40   1
    41    36    35   1
    42    35    41   1
    43    36    37   1
    44    36    42   1
    45    37    38   1
    46    37    43   1
    47    38    44   1
    48     1    45   1
    49     2    46   1
    50     3    47   1
    51     4    48   1
    52     6    49   1
    53     6    50   1
    54     7    51   1
    55     8    52   1
    56     9    53   1
    57    10    54   1
    58    11    55   1
    59    12    56   1
    60    13    57   1
    61    14    58   1
    62    15    59   1
    63    16    60   1
    64    17    61   1
    65    17    62   1
    66    17    63   1
    67    18    64   1
    68    18    65   1
    69    19    66   1
    70    20    67   1
    71    22    68   1
    72    23    69   1
    73    24    70   1
    74    25    71   1
    75    26    72   1
    76    27    73   1
    77    27    74   1
    78    28    75   1
    79    29    76   1
    80    32    77   1
    81    33    78   1
    82    34    79   1
    83    35    80   1
    84    36    81   1
    85    37    82   1
    86    38    83   1
    87    38    84   1
    88    39    85   1
    89    40    86   1
    90    41    87   1
    91    44    88   1
@<TRIPOS>SUBSTRUCTURE
     1  ACR      1

