@<TRIPOS>MOLECULE
2r23_ligand_020
    63    64
SMALL
GAST_HUCK
****
This file was generated by PARSER (from files_GN.cpp)

@<TRIPOS>ATOM
      1 OA1       -11.9264    2.5260   69.1866 O.co2       1 KO1      -0.5426
      2 C1        -10.6231    2.5423   69.5446 C.2         1 KO1       0.1068
      3 O1B       -10.3379    2.6318   70.8601 O.co2       1 KO1      -0.5426
      4 C2         -9.5373    2.5148   68.5311 C.3         1 KO1       0.2477
      5 O6        -10.1179    2.4161   67.2035 O.3         1 KO1      -0.3362
      6 C6         -9.1927    2.3117   66.0886 C.3         1 KO1       0.1171
      7 C7         -9.9583    2.3159   64.7269 C.3         1 KO1       0.1067
      8 C8        -11.3837    2.9559   64.7820 C.3         1 KO1       0.0727
      9 O8        -11.7211    3.5550   63.5266 O.3         1 KO1      -0.3924
     10 O7         -9.1826    2.9886   63.7235 O.3         1 KO1      -0.3869
     11 C5         -8.2569    1.0681   66.2495 C.3         1 KO1       0.1120
     12 O5         -8.9868   -0.1458   66.0448 O.3         1 KO1      -0.3865
     13 C4         -7.5916    1.0804   67.6549 C.3         1 KO1       0.1139
     14 O4         -6.8115   -0.0960   67.8695 O.3         1 KO1      -0.3865
     15 C3         -8.6389    1.2627   68.7909 C.3         1 KO1       0.1429
     16 O3         -9.4221    0.0685   68.9336 O.3         1 KO1      -0.3844
     17 O2         -8.6873    3.6837   68.6529 O.3         1 KO1      -0.3388
     18 C1         -8.9072    8.3755   66.9278 C.2         1 KO1       0.1043
     19 O1A        -9.8505    8.9760   66.1653 O.co2       1 KO1      -0.5426
     20 O1B        -7.6758    8.9373   66.9154 O.co2       1 KO1      -0.5426
     21 C2         -9.3027    7.4341   68.0099 C.3         1 KO1       0.2225
     22 C3         -8.9360    5.9463   67.6782 C.3         1 KO1       0.0360
     23 C4         -9.1847    5.0156   68.9046 C.3         1 KO1       0.0937
     24 C5         -8.4313    5.5693   70.1514 C.3         1 KO1       0.1098
     25 O5         -7.0269    5.3494   70.0198 O.3         1 KO1      -0.3866
     26 C6         -8.7473    7.0871   70.3848 C.3         1 KO1       0.1170
     27 O6         -8.5082    7.8365   69.1592 O.3         1 KO1      -0.3380
     28 C7         -7.9887    7.7949   71.5527 C.3         1 KO1       0.1067
     29 O7         -6.6868    7.2563   71.8038 O.3         1 KO1      -0.3869
     30 C8         -8.7635    7.8394   72.9028 C.3         1 KO1       0.0727
     31 O8         -8.7968    6.5823   73.5795 O.3         1 KO1      -0.3924
     32 O2        -10.7019    7.5995   68.3839 O.3         1 KO1      -0.3323
     33 C9        -11.7906    7.2872   67.4934 C.3         1 KO1       0.0783
     34 C10       -12.6549    6.3087   68.1313 C.2         1 KO1      -0.0639
     35 C11       -13.7967    5.8830   67.5832 C.2         1 KO1      -0.1153
     36 H1         -8.5634    3.2028   66.0792 H           1 KO1       0.0649
     37 H2        -10.1043    1.2865   64.3749 H           1 KO1       0.0643
     38 H3        -11.4227    3.7291   65.5608 H           1 KO1       0.0584
     39 H4        -12.1247    2.1766   65.0173 H           1 KO1       0.0584
     40 H5        -12.7037    3.4640   63.4784 H           1 KO1       0.2095
     41 H6         -9.1766    3.9353   63.9957 H           1 KO1       0.2100
     42 H7         -7.4738    1.1187   65.4845 H           1 KO1       0.0647
     43 H8         -8.4899   -0.6277   65.3474 H           1 KO1       0.2100
     44 H9         -6.8921    1.9190   67.6934 H           1 KO1       0.0647
     45 H10        -7.2796   -0.8261   67.4065 H           1 KO1       0.2100
     46 H11        -8.0976    1.3979   69.7332 H           1 KO1       0.0667
     47 H12       -10.0077    0.0460   68.1488 H           1 KO1       0.2100
     48 H13        -7.8785    5.8890   67.3874 H           1 KO1       0.0336
     49 H14        -9.5228    5.6056   66.8274 H           1 KO1       0.0336
     50 H15       -10.2618    5.0104   69.1075 H           1 KO1       0.0623
     51 H16        -8.7658    4.9928   71.0135 H           1 KO1       0.0646
     52 H17        -6.8191    5.4480   69.0670 H           1 KO1       0.2100
     53 H18        -9.8182    7.1605   70.6347 H           1 KO1       0.0649
     54 H19        -7.8463    8.8398   71.2517 H           1 KO1       0.0643
     55 H20        -6.0334    7.9405   71.5228 H           1 KO1       0.2100
     56 H21        -9.7948    8.1904   72.7507 H           1 KO1       0.0584
     57 H22        -8.2660    8.5545   73.5708 H           1 KO1       0.0584
     58 H23        -9.3693    6.0134   73.0316 H           1 KO1       0.2095
     59 H24       -11.4384    6.8686   66.5505 H           1 KO1       0.0740
     60 H25       -12.3628    8.1949   67.2874 H           1 KO1       0.0740
     61 H26       -12.3785    5.9192   69.0067 H           1 KO1       0.0695
     62 H27       -14.3438    5.1903   68.0456 H           1 KO1       0.0290
     63 H28       -14.1162    6.2386   66.7087 H           1 KO1       0.0290
@<TRIPOS>BOND
     1     2     1  ar
     2     2     3  ar
     3     4     2   1
     4     4     5   1
     5     4    15   1
     6    17     4   1
     7     5     6   1
     8     6     7   1
     9     6    11   1
    10     7     8   1
    11     7    10   1
    12     8     9   1
    13    11    12   1
    14    13    11   1
    15    13    14   1
    16    15    13   1
    17    15    16   1
    18    23    17   1
    19    18    19  ar
    20    18    20  ar
    21    21    18   1
    22    22    21   1
    23    21    27   1
    24    21    32   1
    25    22    23   1
    26    23    24   1
    27    24    25   1
    28    24    26   1
    29    26    27   1
    30    26    28   1
    31    28    29   1
    32    28    30   1
    33    30    31   1
    34    32    33   1
    35    33    34   1
    36    34    35   2
    37     6    36   1
    38     7    37   1
    39     8    38   1
    40     8    39   1
    41     9    40   1
    42    10    41   1
    43    11    42   1
    44    12    43   1
    45    13    44   1
    46    14    45   1
    47    15    46   1
    48    16    47   1
    49    22    48   1
    50    22    49   1
    51    23    50   1
    52    24    51   1
    53    25    52   1
    54    26    53   1
    55    28    54   1
    56    29    55   1
    57    30    56   1
    58    30    57   1
    59    31    58   1
    60    33    59   1
    61    33    60   1
    62    34    61   1
    63    35    62   1
    64    35    63   1
@<TRIPOS>SUBSTRUCTURE
     1  KO1      2

