@<TRIPOS>MOLECULE
2r23_ligand_004
    63    64
SMALL
GAST_HUCK
****
This file was generated by PARSER (from files_GN.cpp)

@<TRIPOS>ATOM
      1 OA1       -11.1797    4.6167   64.1241 O.co2       1 KO1      -0.5426
      2 C1        -11.2812    4.5027   65.4724 C.2         1 KO1       0.1068
      3 O1B       -12.3756    5.0449   66.0556 O.co2       1 KO1      -0.5426
      4 C2        -10.3882    3.5904   66.2470 C.3         1 KO1       0.2477
      5 O6         -9.3767    3.1049   65.3272 O.3         1 KO1      -0.3362
      6 C6         -8.3963    2.1606   65.8236 C.3         1 KO1       0.1171
      7 C7         -7.3610    1.9130   64.6918 C.3         1 KO1       0.1067
      8 C8         -6.1550    1.0461   65.1309 C.3         1 KO1       0.0727
      9 O8         -5.1203    1.1521   64.1628 O.3         1 KO1      -0.3924
     10 O7         -7.9602    1.3326   63.5305 O.3         1 KO1      -0.3869
     11 C5         -9.0735    0.8818   66.4246 C.3         1 KO1       0.1120
     12 O5         -9.6094   -0.0069   65.4405 O.3         1 KO1      -0.3865
     13 C4        -10.2072    1.2961   67.3945 C.3         1 KO1       0.1139
     14 O4        -10.9286    0.1505   67.8474 O.3         1 KO1      -0.3865
     15 C3        -11.1725    2.3238   66.7307 C.3         1 KO1       0.1429
     16 O3        -11.8344    1.6844   65.6351 O.3         1 KO1      -0.3844
     17 O2         -9.6679    4.3061   67.2983 O.3         1 KO1      -0.3388
     18 C1         -8.3074    7.1307   71.1536 C.2         1 KO1       0.1043
     19 O1A        -7.4650    6.1504   71.5596 O.co2       1 KO1      -0.5426
     20 O1B        -8.4866    8.1274   72.0487 O.co2       1 KO1      -0.5426
     21 C2         -9.3940    6.8257   70.1871 C.3         1 KO1       0.2225
     22 C3         -8.9626    5.8144   69.0692 C.3         1 KO1       0.0360
     23 C4        -10.1742    5.2904   68.2415 C.3         1 KO1       0.0937
     24 C5        -11.2637    4.7403   69.2114 C.3         1 KO1       0.1098
     25 O5        -10.7909    3.5197   69.7842 O.3         1 KO1      -0.3866
     26 C6        -11.6209    5.7752   70.3232 C.3         1 KO1       0.1170
     27 O6        -10.4152    6.1970   70.9968 O.3         1 KO1      -0.3380
     28 C7        -12.6236    5.2270   71.3860 C.3         1 KO1       0.1067
     29 O7        -13.7615    4.6432   70.7490 O.3         1 KO1      -0.3869
     30 C8        -13.1395    6.2953   72.3871 C.3         1 KO1       0.0727
     31 O8        -12.1044    6.8264   73.2044 O.3         1 KO1      -0.3924
     32 O2         -9.9759    8.0429   69.6534 O.3         1 KO1      -0.3323
     33 C9         -9.2242    8.9640   68.8333 C.3         1 KO1       0.0783
     34 C10        -8.9631   10.1841   69.5709 C.2         1 KO1      -0.0639
     35 C11        -7.8890   10.9594   69.3761 C.2         1 KO1      -0.1153
     36 H1         -7.8463    2.6505   66.6360 H           1 KO1       0.0649
     37 H2         -6.9646    2.8857   64.3898 H           1 KO1       0.0643
     38 H3         -6.4472   -0.0046   65.2201 H           1 KO1       0.0584
     39 H4         -5.7671    1.3840   66.0951 H           1 KO1       0.0584
     40 H5         -4.4760    1.7864   64.5459 H           1 KO1       0.2095
     41 H6         -8.5852    2.0065   63.1876 H           1 KO1       0.2100
     42 H7         -8.3288    0.3146   66.9895 H           1 KO1       0.0647
     43 H8         -8.9515   -0.0389   64.7134 H           1 KO1       0.2100
     44 H9         -9.7524    1.7499   68.2773 H           1 KO1       0.0647
     45 H10       -11.5025    0.4789   68.5722 H           1 KO1       0.2100
     46 H11       -11.9507    2.5734   67.4351 H           1 KO1       0.0667
     47 H12       -12.5237    2.3130   65.3336 H           1 KO1       0.2100
     48 H13        -8.4652    4.9524   69.5254 H           1 KO1       0.0336
     49 H14        -8.2383    6.2774   68.3940 H           1 KO1       0.0336
     50 H15       -10.5780    6.1439   67.6926 H           1 KO1       0.0623
     51 H16       -12.1670    4.5522   68.6446 H           1 KO1       0.0646
     52 H17       -11.5825    3.0642   70.1410 H           1 KO1       0.2100
     53 H18       -12.0943    6.6417   69.8465 H           1 KO1       0.0649
     54 H19       -12.1333    4.4370   71.9574 H           1 KO1       0.0643
     55 H20       -14.1541    5.3564   70.2027 H           1 KO1       0.2100
     56 H21       -13.8750    5.8338   73.0470 H           1 KO1       0.0584
     57 H22       -13.6284    7.1101   71.8512 H           1 KO1       0.0584
     58 H23       -11.5242    7.3350   72.6003 H           1 KO1       0.2095
     59 H24        -9.8553    9.2216   67.9801 H           1 KO1       0.0740
     60 H25        -8.3080    8.5199   68.4411 H           1 KO1       0.0740
     61 H26        -9.6331   10.4717   70.2470 H           1 KO1       0.0695
     62 H27        -7.7744   11.7942   69.9006 H           1 KO1       0.0290
     63 H28        -7.2030   10.7298   68.6976 H           1 KO1       0.0290
@<TRIPOS>BOND
     1     2     1  ar
     2     2     3  ar
     3     4     2   1
     4     4     5   1
     5     4    15   1
     6    17     4   1
     7     5     6   1
     8     6     7   1
     9     6    11   1
    10     7     8   1
    11     7    10   1
    12     8     9   1
    13    11    12   1
    14    13    11   1
    15    13    14   1
    16    15    13   1
    17    15    16   1
    18    23    17   1
    19    18    19  ar
    20    18    20  ar
    21    21    18   1
    22    22    21   1
    23    21    27   1
    24    21    32   1
    25    22    23   1
    26    23    24   1
    27    24    25   1
    28    24    26   1
    29    26    27   1
    30    26    28   1
    31    28    29   1
    32    28    30   1
    33    30    31   1
    34    32    33   1
    35    33    34   1
    36    34    35   2
    37     6    36   1
    38     7    37   1
    39     8    38   1
    40     8    39   1
    41     9    40   1
    42    10    41   1
    43    11    42   1
    44    12    43   1
    45    13    44   1
    46    14    45   1
    47    15    46   1
    48    16    47   1
    49    22    48   1
    50    22    49   1
    51    23    50   1
    52    24    51   1
    53    25    52   1
    54    26    53   1
    55    28    54   1
    56    29    55   1
    57    30    56   1
    58    30    57   1
    59    31    58   1
    60    33    59   1
    61    33    60   1
    62    34    61   1
    63    35    62   1
    64    35    63   1
@<TRIPOS>SUBSTRUCTURE
     1  KO1      2

