@<TRIPOS>MOLECULE
2r23_ligand_017
    63    64
SMALL
GAST_HUCK
****
This file was generated by PARSER (from files_GN.cpp)

@<TRIPOS>ATOM
      1 OA1        -9.3551   -0.7086   67.1503 O.co2       1 KO1      -0.5426
      2 C1         -8.8371    0.0186   66.1308 C.2         1 KO1       0.1068
      3 O1B        -9.0648   -0.4504   64.8754 O.co2       1 KO1      -0.5426
      4 C2         -8.2988    1.3993   66.3427 C.3         1 KO1       0.2477
      5 O6         -9.2701    2.2740   65.6758 O.3         1 KO1      -0.3362
      6 C6         -9.0112    3.7037   65.7626 C.3         1 KO1       0.1171
      7 C7        -10.1560    4.5128   65.0703 C.3         1 KO1       0.1067
      8 C8        -11.5037    3.7818   64.8365 C.3         1 KO1       0.0727
      9 O8        -11.9737    4.0799   63.5039 O.3         1 KO1      -0.3924
     10 O7        -10.4442    5.7044   65.7960 O.3         1 KO1      -0.3869
     11 C5         -7.5938    4.0396   65.1772 C.3         1 KO1       0.1120
     12 O5         -7.5489    3.8966   63.7566 O.3         1 KO1      -0.3865
     13 C4         -6.4955    3.0952   65.7470 C.3         1 KO1       0.1139
     14 O4         -5.2474    3.3007   65.0775 O.3         1 KO1      -0.3865
     15 C3         -6.9153    1.6062   65.6278 C.3         1 KO1       0.1429
     16 O3         -6.9446    1.2606   64.2336 O.3         1 KO1      -0.3844
     17 O2         -8.3902    1.6808   67.7679 O.3         1 KO1      -0.3388
     18 C1         -4.6738   -0.2940   70.6791 C.2         1 KO1       0.1043
     19 O1A        -4.3704   -1.2749   69.7881 O.co2       1 KO1      -0.5426
     20 O1B        -4.0493   -0.3351   71.8802 O.co2       1 KO1      -0.5426
     21 C2         -5.5164    0.8762   70.3295 C.3         1 KO1       0.2225
     22 C3         -6.3675    0.6611   69.0275 C.3         1 KO1       0.0360
     23 C4         -7.4359    1.7825   68.8493 C.3         1 KO1       0.0937
     24 C5         -8.2848    1.9227   70.1505 C.3         1 KO1       0.1098
     25 O5         -9.1478    0.7943   70.3043 O.3         1 KO1      -0.3866
     26 C6         -7.3556    2.1082   71.3879 C.3         1 KO1       0.1170
     27 O6         -6.4206    1.0106   71.4389 O.3         1 KO1      -0.3380
     28 C7         -8.1194    2.2082   72.7463 C.3         1 KO1       0.1067
     29 O7         -8.7743    3.4705   72.8571 O.3         1 KO1      -0.3869
     30 C8         -7.1975    2.0312   73.9809 C.3         1 KO1       0.0727
     31 O8         -6.0752    2.9110   73.9580 O.3         1 KO1      -0.3924
     32 O2         -4.6933    2.0728   70.2818 O.3         1 KO1      -0.3323
     33 C9         -3.4690    2.1347   69.5238 C.3         1 KO1       0.0783
     34 C10        -3.4742    3.2550   68.6099 C.2         1 KO1      -0.0639
     35 C11        -2.5090    3.4333   67.6909 C.2         1 KO1      -0.1153
     36 H1         -9.0203    3.9852   66.8210 H           1 KO1       0.0649
     37 H2         -9.8372    4.8377   64.0778 H           1 KO1       0.0643
     38 H3        -12.2659    4.0885   65.5766 H           1 KO1       0.0584
     39 H4        -11.3613    2.6938   64.9038 H           1 KO1       0.0584
     40 H5        -12.8286    3.5604   63.4069 H           1 KO1       0.2095
     41 H6        -10.0102    6.4340   65.3039 H           1 KO1       0.2100
     42 H7         -7.3254    5.0723   65.4229 H           1 KO1       0.0647
     43 H8         -7.2563    4.7655   63.4072 H           1 KO1       0.2100
     44 H9         -6.3282    3.3432   66.7967 H           1 KO1       0.0647
     45 H10        -4.6162    2.7395   65.5755 H           1 KO1       0.2100
     46 H11        -6.1513    0.9715   66.0672 H           1 KO1       0.0667
     47 H12        -7.3837    0.3768   64.1782 H           1 KO1       0.2100
     48 H13        -6.8765   -0.3075   69.0618 H           1 KO1       0.0336
     49 H14        -5.6770    0.6454   68.1857 H           1 KO1       0.0336
     50 H15        -6.9020    2.7316   68.7014 H           1 KO1       0.0623
     51 H16        -8.9204    2.8015   70.0421 H           1 KO1       0.0646
     52 H17        -8.5733    0.0528   70.6109 H           1 KO1       0.2100
     53 H18        -6.8117    3.0539   71.2622 H           1 KO1       0.0649
     54 H19        -8.8816    1.4254   72.7906 H           1 KO1       0.0643
     55 H20        -9.5347    3.4310   72.2387 H           1 KO1       0.2100
     56 H21        -6.8347    1.0025   74.0426 H           1 KO1       0.0584
     57 H22        -7.7675    2.2360   74.8897 H           1 KO1       0.0584
     58 H23        -5.4334    2.4899   73.3473 H           1 KO1       0.2095
     59 H24        -3.2700    1.2131   68.9737 H           1 KO1       0.0740
     60 H25        -2.6555    2.2725   70.2432 H           1 KO1       0.0740
     61 H26        -4.2180    3.9066   68.6383 H           1 KO1       0.0695
     62 H27        -2.5426    4.2060   67.0731 H           1 KO1       0.0290
     63 H28        -1.7451    2.8001   67.6217 H           1 KO1       0.0290
@<TRIPOS>BOND
     1     2     1  ar
     2     2     3  ar
     3     4     2   1
     4     4     5   1
     5     4    15   1
     6    17     4   1
     7     5     6   1
     8     6     7   1
     9     6    11   1
    10     7     8   1
    11     7    10   1
    12     8     9   1
    13    11    12   1
    14    13    11   1
    15    13    14   1
    16    15    13   1
    17    15    16   1
    18    23    17   1
    19    18    19  ar
    20    18    20  ar
    21    21    18   1
    22    22    21   1
    23    21    27   1
    24    21    32   1
    25    22    23   1
    26    23    24   1
    27    24    25   1
    28    24    26   1
    29    26    27   1
    30    26    28   1
    31    28    29   1
    32    28    30   1
    33    30    31   1
    34    32    33   1
    35    33    34   1
    36    34    35   2
    37     6    36   1
    38     7    37   1
    39     8    38   1
    40     8    39   1
    41     9    40   1
    42    10    41   1
    43    11    42   1
    44    12    43   1
    45    13    44   1
    46    14    45   1
    47    15    46   1
    48    16    47   1
    49    22    48   1
    50    22    49   1
    51    23    50   1
    52    24    51   1
    53    25    52   1
    54    26    53   1
    55    28    54   1
    56    29    55   1
    57    30    56   1
    58    30    57   1
    59    31    58   1
    60    33    59   1
    61    33    60   1
    62    34    61   1
    63    35    62   1
    64    35    63   1
@<TRIPOS>SUBSTRUCTURE
     1  KO1      2

