@<TRIPOS>MOLECULE
2r23_ligand_016
    63    64
SMALL
GAST_HUCK
****
This file was generated by PARSER (from files_GN.cpp)

@<TRIPOS>ATOM
      1 OA1        -9.8717    8.1212   66.4314 O.co2       1 KO1      -0.5426
      2 C1         -8.8668    7.2549   66.6901 C.2         1 KO1       0.1068
      3 O1B        -7.6436    7.7877   66.9202 O.co2       1 KO1      -0.5426
      4 C2         -9.0866    5.8004   66.8782 C.3         1 KO1       0.2477
      5 O6         -8.0784    5.1604   66.0549 O.3         1 KO1      -0.3362
      6 C6         -7.9867    3.7131   66.1095 C.3         1 KO1       0.1171
      7 C7         -6.7607    3.2933   65.2382 C.3         1 KO1       0.1067
      8 C8         -6.3133    1.8217   65.4140 C.3         1 KO1       0.0727
      9 O8         -5.5082    1.4121   64.3103 O.3         1 KO1      -0.3924
     10 O7         -6.9992    3.5273   63.8487 O.3         1 KO1      -0.3869
     11 C5         -9.3574    3.0478   65.7401 C.3         1 KO1       0.1120
     12 O5         -9.6311    3.1034   64.3353 O.3         1 KO1      -0.3865
     13 C4        -10.5262    3.7235   66.5182 C.3         1 KO1       0.1139
     14 O4        -11.7826    3.2197   66.0613 O.3         1 KO1      -0.3865
     15 C3        -10.4751    5.2729   66.3850 C.3         1 KO1       0.1429
     16 O3        -10.7332    5.5976   65.0118 O.3         1 KO1      -0.3844
     17 O2         -8.7845    5.4720   68.2602 O.3         1 KO1      -0.3388
     18 C1        -10.0819    9.1353   71.3632 C.2         1 KO1       0.1043
     19 O1A        -8.8500    9.5071   71.7801 O.co2       1 KO1      -0.5426
     20 O1B       -10.8737   10.1088   70.8454 O.co2       1 KO1      -0.5426
     21 C2        -10.3546    7.7088   71.0386 C.3         1 KO1       0.2225
     22 C3         -9.6539    7.3674   69.6828 C.3         1 KO1       0.0360
     23 C4         -9.6076    5.8363   69.3969 C.3         1 KO1       0.0937
     24 C5         -9.0347    5.0837   70.6322 C.3         1 KO1       0.1098
     25 O5         -7.6414    5.3854   70.7607 O.3         1 KO1      -0.3866
     26 C6         -9.8313    5.4735   71.9120 C.3         1 KO1       0.1170
     27 O6         -9.7937    6.9046   72.1012 O.3         1 KO1      -0.3380
     28 C7         -9.3954    4.7660   73.2324 C.3         1 KO1       0.1067
     29 O7        -10.3769    5.0351   74.2368 O.3         1 KO1      -0.3869
     30 C8         -7.9960    5.1189   73.8025 C.3         1 KO1       0.0727
     31 O8         -7.5371    6.4235   73.4512 O.3         1 KO1      -0.3924
     32 O2        -11.7815    7.4726   70.8803 O.3         1 KO1      -0.3323
     33 C9        -12.6238    7.4950   72.0534 C.3         1 KO1       0.0783
     34 C10       -13.9789    7.1873   71.6446 C.2         1 KO1      -0.0639
     35 C11       -14.6894    6.1584   72.1207 C.2         1 KO1      -0.1153
     36 H1         -7.7447    3.4257   67.1409 H           1 KO1       0.0649
     37 H2         -5.9158    3.9218   65.5278 H           1 KO1       0.0643
     38 H3         -7.1764    1.1593   65.4655 H           1 KO1       0.0584
     39 H4         -5.7319    1.7114   66.3318 H           1 KO1       0.0584
     40 H5         -4.6563    1.8902   64.4089 H           1 KO1       0.2095
     41 H6         -6.7593    4.4635   63.6784 H           1 KO1       0.2100
     42 H7         -9.3290    1.9922   66.0269 H           1 KO1       0.0647
     43 H8         -9.0415    2.4357   63.9273 H           1 KO1       0.2100
     44 H9        -10.4424    3.4520   67.5720 H           1 KO1       0.0647
     45 H10       -12.4435    3.5571   66.7042 H           1 KO1       0.2100
     46 H11       -11.2809    5.7184   66.9750 H           1 KO1       0.0667
     47 H12       -10.3296    6.4702   64.8510 H           1 KO1       0.2100
     48 H13        -8.6281    7.7473   69.6806 H           1 KO1       0.0336
     49 H14       -10.1998    7.8739   68.8819 H           1 KO1       0.0336
     50 H15       -10.6272    5.4730   69.2372 H           1 KO1       0.0623
     51 H16        -9.1307    4.0071   70.4616 H           1 KO1       0.0646
     52 H17        -7.2905    5.3850   69.8450 H           1 KO1       0.2100
     53 H18       -10.8684    5.1655   71.7528 H           1 KO1       0.0649
     54 H19        -9.4157    3.6839   73.0689 H           1 KO1       0.0643
     55 H20       -10.3412    6.0019   74.3932 H           1 KO1       0.2100
     56 H21        -7.2594    4.3942   73.4497 H           1 KO1       0.0584
     57 H22        -8.0146    5.0540   74.8944 H           1 KO1       0.0584
     58 H23        -8.3212    7.0087   73.5282 H           1 KO1       0.2095
     59 H24       -12.6248    8.4889   72.5070 H           1 KO1       0.0740
     60 H25       -12.2565    6.7832   72.7980 H           1 KO1       0.0740
     61 H26       -14.4107    7.7880   70.9796 H           1 KO1       0.0695
     62 H27       -15.6202    6.0085   71.8121 H           1 KO1       0.0290
     63 H28       -14.3099    5.5323   72.7897 H           1 KO1       0.0290
@<TRIPOS>BOND
     1     2     1  ar
     2     2     3  ar
     3     4     2   1
     4     4     5   1
     5     4    15   1
     6    17     4   1
     7     5     6   1
     8     6     7   1
     9     6    11   1
    10     7     8   1
    11     7    10   1
    12     8     9   1
    13    11    12   1
    14    13    11   1
    15    13    14   1
    16    15    13   1
    17    15    16   1
    18    23    17   1
    19    18    19  ar
    20    18    20  ar
    21    21    18   1
    22    22    21   1
    23    21    27   1
    24    21    32   1
    25    22    23   1
    26    23    24   1
    27    24    25   1
    28    24    26   1
    29    26    27   1
    30    26    28   1
    31    28    29   1
    32    28    30   1
    33    30    31   1
    34    32    33   1
    35    33    34   1
    36    34    35   2
    37     6    36   1
    38     7    37   1
    39     8    38   1
    40     8    39   1
    41     9    40   1
    42    10    41   1
    43    11    42   1
    44    12    43   1
    45    13    44   1
    46    14    45   1
    47    15    46   1
    48    16    47   1
    49    22    48   1
    50    22    49   1
    51    23    50   1
    52    24    51   1
    53    25    52   1
    54    26    53   1
    55    28    54   1
    56    29    55   1
    57    30    56   1
    58    30    57   1
    59    31    58   1
    60    33    59   1
    61    33    60   1
    62    34    61   1
    63    35    62   1
    64    35    63   1
@<TRIPOS>SUBSTRUCTURE
     1  KO1      2

