@<TRIPOS>MOLECULE
2r23_ligand_036
    63    64
SMALL
GAST_HUCK
****
This file was generated by PARSER (from files_GN.cpp)

@<TRIPOS>ATOM
      1 OA1       -11.6529    6.3556   67.5545 O.co2       1 KO1      -0.5426
      2 C1        -12.2256    5.4074   68.3312 C.2         1 KO1       0.1068
      3 O1B       -12.7407    5.8000   69.5171 O.co2       1 KO1      -0.5426
      4 C2        -12.2219    3.9915   67.8801 C.3         1 KO1       0.2477
      5 O6        -13.0289    4.0011   66.6763 O.3         1 KO1      -0.3362
      6 C6        -13.1660    2.7487   65.9581 C.3         1 KO1       0.1171
      7 C7        -13.9550    3.0076   64.6394 C.3         1 KO1       0.1067
      8 C8        -13.2530    3.9997   63.6719 C.3         1 KO1       0.0727
      9 O8        -11.8945    3.6603   63.4062 O.3         1 KO1      -0.3924
     10 O7        -14.2073    1.7763   63.9597 O.3         1 KO1      -0.3869
     11 C5        -13.8234    1.6712   66.8745 C.3         1 KO1       0.1120
     12 O5        -15.2018    1.9497   67.1289 O.3         1 KO1      -0.3865
     13 C4        -13.0565    1.5815   68.2213 C.3         1 KO1       0.1139
     14 O4        -13.7011    0.6773   69.1164 O.3         1 KO1      -0.3865
     15 C3        -12.8796    2.9772   68.8843 C.3         1 KO1       0.1429
     16 O3        -14.1440    3.4581   69.3509 O.3         1 KO1      -0.3844
     17 O2        -10.8678    3.6167   67.5033 O.3         1 KO1      -0.3388
     18 C1         -6.4181    5.6673   68.4874 C.2         1 KO1       0.1043
     19 O1A        -6.4987    6.3517   67.3192 O.co2       1 KO1      -0.5426
     20 O1B        -5.3623    5.9345   69.2889 O.co2       1 KO1      -0.5426
     21 C2         -7.4997    4.7849   68.9799 C.3         1 KO1       0.2225
     22 C3         -8.7799    4.8048   68.0706 C.3         1 KO1       0.0360
     23 C4         -9.7643    3.6647   68.4426 C.3         1 KO1       0.0937
     24 C5         -9.0241    2.2981   68.4172 C.3         1 KO1       0.1098
     25 O5         -8.6473    1.9728   67.0778 O.3         1 KO1      -0.3866
     26 C6         -7.7779    2.3600   69.3527 C.3         1 KO1       0.1170
     27 O6         -6.9211    3.4567   68.9574 O.3         1 KO1      -0.3380
     28 C7         -6.9660    1.0344   69.4622 C.3         1 KO1       0.1067
     29 O7         -5.8425    1.2441   70.3246 O.3         1 KO1      -0.3869
     30 C8         -6.4592    0.3923   68.1399 C.3         1 KO1       0.0727
     31 O8         -6.0752    1.3697   67.1762 O.3         1 KO1      -0.3924
     32 O2         -7.7664    5.1201   70.3674 O.3         1 KO1      -0.3323
     33 C9         -8.6165    6.2308   70.7348 C.3         1 KO1       0.0783
     34 C10        -9.8812    5.7709   71.2688 C.2         1 KO1      -0.0639
     35 C11        -9.9692    4.8300   72.2196 C.2         1 KO1      -0.1153
     36 H1        -12.1704    2.3943   65.6717 H           1 KO1       0.0649
     37 H2        -14.9254    3.4415   64.8849 H           1 KO1       0.0643
     38 H3        -13.2758    5.0087   64.0931 H           1 KO1       0.0584
     39 H4        -13.7932    4.0241   62.7217 H           1 KO1       0.0584
     40 H5        -11.8207    2.7003   63.5834 H           1 KO1       0.2095
     41 H6        -13.3283    1.3897   63.7659 H           1 KO1       0.2100
     42 H7        -13.7717    0.6972   66.3815 H           1 KO1       0.0647
     43 H8        -15.6748    1.7468   66.2953 H           1 KO1       0.2100
     44 H9        -12.0686    1.1630   68.0198 H           1 KO1       0.0647
     45 H10       -14.5903    1.0585   69.2819 H           1 KO1       0.2100
     46 H11       -12.2505    2.8628   69.7707 H           1 KO1       0.0667
     47 H12       -14.6827    3.6234   68.5488 H           1 KO1       0.2100
     48 H13        -8.4806    4.6761   67.0264 H           1 KO1       0.0336
     49 H14        -9.2831    5.7684   68.1506 H           1 KO1       0.0336
     50 H15       -10.1216    3.8474   69.4582 H           1 KO1       0.0623
     51 H16        -9.6984    1.5180   68.7788 H           1 KO1       0.0646
     52 H17        -9.4885    1.8743   66.5843 H           1 KO1       0.2100
     53 H18        -8.1529    2.5603   70.3617 H           1 KO1       0.0649
     54 H19        -7.5909    0.2919   69.9654 H           1 KO1       0.0643
     55 H20        -5.2024    1.7649   69.8006 H           1 KO1       0.2100
     56 H21        -7.2314   -0.2417   67.7026 H           1 KO1       0.0584
     57 H22        -5.5980   -0.2474   68.3504 H           1 KO1       0.0584
     58 H23        -5.2991    1.8326   67.5599 H           1 KO1       0.2095
     59 H24        -8.7944    6.9077   69.8939 H           1 KO1       0.0740
     60 H25        -8.0996    6.8056   71.5115 H           1 KO1       0.0740
     61 H26       -10.7179    6.1850   70.9345 H           1 KO1       0.0695
     62 H27       -10.8563    4.5543   72.5661 H           1 KO1       0.0290
     63 H28        -9.1576    4.3964   72.5943 H           1 KO1       0.0290
@<TRIPOS>BOND
     1     2     1  ar
     2     2     3  ar
     3     4     2   1
     4     4     5   1
     5     4    15   1
     6    17     4   1
     7     5     6   1
     8     6     7   1
     9     6    11   1
    10     7     8   1
    11     7    10   1
    12     8     9   1
    13    11    12   1
    14    13    11   1
    15    13    14   1
    16    15    13   1
    17    15    16   1
    18    23    17   1
    19    18    19  ar
    20    18    20  ar
    21    21    18   1
    22    22    21   1
    23    21    27   1
    24    21    32   1
    25    22    23   1
    26    23    24   1
    27    24    25   1
    28    24    26   1
    29    26    27   1
    30    26    28   1
    31    28    29   1
    32    28    30   1
    33    30    31   1
    34    32    33   1
    35    33    34   1
    36    34    35   2
    37     6    36   1
    38     7    37   1
    39     8    38   1
    40     8    39   1
    41     9    40   1
    42    10    41   1
    43    11    42   1
    44    12    43   1
    45    13    44   1
    46    14    45   1
    47    15    46   1
    48    16    47   1
    49    22    48   1
    50    22    49   1
    51    23    50   1
    52    24    51   1
    53    25    52   1
    54    26    53   1
    55    28    54   1
    56    29    55   1
    57    30    56   1
    58    30    57   1
    59    31    58   1
    60    33    59   1
    61    33    60   1
    62    34    61   1
    63    35    62   1
    64    35    63   1
@<TRIPOS>SUBSTRUCTURE
     1  KO1      2

