@<TRIPOS>MOLECULE
2r23_ligand_018
    63    64
SMALL
GAST_HUCK
****
This file was generated by PARSER (from files_GN.cpp)

@<TRIPOS>ATOM
      1 OA1       -11.5110   -0.0739   67.1587 O.co2       1 KO1      -0.5426
      2 C1        -10.2143    0.0684   67.5489 C.2         1 KO1       0.1068
      3 O1B        -9.6744   -0.9183   68.2990 O.co2       1 KO1      -0.5426
      4 C2         -9.3465    1.0853   66.8947 C.3         1 KO1       0.2477
      5 O6        -10.1892    2.1414   66.3699 O.3         1 KO1      -0.3362
      6 C6         -9.5620    3.2302   65.6518 C.3         1 KO1       0.1171
      7 C7        -10.7039    4.2159   65.2443 C.3         1 KO1       0.1067
      8 C8        -10.9705    5.3224   66.3007 C.3         1 KO1       0.0727
      9 O8         -9.7919    6.0635   66.6231 O.3         1 KO1      -0.3924
     10 O7        -10.4451    4.8391   63.9807 O.3         1 KO1      -0.3869
     11 C5         -8.7033    2.7127   64.4566 C.3         1 KO1       0.1120
     12 O5         -9.4899    2.3521   63.3059 O.3         1 KO1      -0.3865
     13 C4         -7.7833    1.5448   64.9094 C.3         1 KO1       0.1139
     14 O4         -7.0817    0.9831   63.8014 O.3         1 KO1      -0.3865
     15 C3         -8.5512    0.4403   65.7035 C.3         1 KO1       0.1429
     16 O3         -9.4235   -0.2845   64.8324 O.3         1 KO1      -0.3844
     17 O2         -8.3567    1.5207   67.8774 O.3         1 KO1      -0.3388
     18 C1         -6.1032    5.6262   69.0607 C.2         1 KO1       0.1043
     19 O1A        -5.4511    5.5462   67.8756 O.co2       1 KO1      -0.5426
     20 O1B        -5.4985    6.3004   70.0607 O.co2       1 KO1      -0.5426
     21 C2         -7.4029    4.9205   69.2517 C.3         1 KO1       0.2225
     22 C3         -7.3402    3.6034   68.4142 C.3         1 KO1       0.0360
     23 C4         -8.5659    2.6968   68.6849 C.3         1 KO1       0.0937
     24 C5         -8.6536    2.3807   70.2058 C.3         1 KO1       0.1098
     25 O5         -7.5678    1.5357   70.6052 O.3         1 KO1      -0.3866
     26 C6         -8.6518    3.7207   71.0226 C.3         1 KO1       0.1170
     27 O6         -7.5333    4.5611   70.6514 O.3         1 KO1      -0.3380
     28 C7         -8.6015    3.5868   72.5752 C.3         1 KO1       0.1067
     29 O7         -7.2586    3.5648   73.0676 O.3         1 KO1      -0.3869
     30 C8         -9.4140    2.4065   73.1649 C.3         1 KO1       0.0727
     31 O8         -8.7433    1.1524   73.0478 O.3         1 KO1      -0.3924
     32 O2         -8.5385    5.6981   68.7809 O.3         1 KO1      -0.3323
     33 C9         -8.8604    7.0153   69.2850 C.3         1 KO1       0.0783
     34 C10        -8.7047    7.1832   70.7179 C.2         1 KO1      -0.0639
     35 C11        -8.2987    8.3316   71.2856 C.2         1 KO1      -0.1153
     36 H1         -8.8816    3.7517   66.3186 H           1 KO1       0.0649
     37 H2        -11.6382    3.6438   65.1322 H           1 KO1       0.0643
     38 H3        -11.3739    4.8806   67.2202 H           1 KO1       0.0584
     39 H4        -11.7150    6.0263   65.9175 H           1 KO1       0.0584
     40 H5         -9.6719    6.7028   65.8862 H           1 KO1       0.2095
     41 H6         -9.9875    5.6849   64.1773 H           1 KO1       0.2100
     42 H7         -8.0542    3.5299   64.1215 H           1 KO1       0.0647
     43 H8        -10.4195    2.3600   63.6004 H           1 KO1       0.2100
     44 H9         -7.0157    1.9557   65.5715 H           1 KO1       0.0647
     45 H10        -7.7597    0.5066   63.2755 H           1 KO1       0.2100
     46 H11        -7.8273   -0.2808   66.0969 H           1 KO1       0.0667
     47 H12        -9.7102    0.3643   64.1590 H           1 KO1       0.2100
     48 H13        -6.4265    3.0427   68.6719 H           1 KO1       0.0336
     49 H14        -7.3086    3.8556   67.3463 H           1 KO1       0.0336
     50 H15        -9.4718    3.2329   68.3876 H           1 KO1       0.0623
     51 H16        -9.5936    1.8479   70.3991 H           1 KO1       0.0646
     52 H17        -7.7513    0.6731   70.1716 H           1 KO1       0.2100
     53 H18        -9.5822    4.2573   70.7875 H           1 KO1       0.0649
     54 H19        -9.0454    4.5013   72.9909 H           1 KO1       0.0643
     55 H20        -6.8073    2.8495   72.5703 H           1 KO1       0.2100
     56 H21       -10.3785    2.3275   72.6543 H           1 KO1       0.0584
     57 H22        -9.6128    2.5846   74.2284 H           1 KO1       0.0584
     58 H23        -8.0089    1.1872   73.6966 H           1 KO1       0.2095
     59 H24        -9.9157    7.1768   69.0542 H           1 KO1       0.0740
     60 H25        -8.3010    7.7549   68.7091 H           1 KO1       0.0740
     61 H26        -8.9764    6.4321   71.3107 H           1 KO1       0.0695
     62 H27        -8.2282    8.3908   72.2726 H           1 KO1       0.0290
     63 H28        -8.0474    9.1204   70.7358 H           1 KO1       0.0290
@<TRIPOS>BOND
     1     2     1  ar
     2     2     3  ar
     3     4     2   1
     4     4     5   1
     5     4    15   1
     6    17     4   1
     7     5     6   1
     8     6     7   1
     9     6    11   1
    10     7     8   1
    11     7    10   1
    12     8     9   1
    13    11    12   1
    14    13    11   1
    15    13    14   1
    16    15    13   1
    17    15    16   1
    18    23    17   1
    19    18    19  ar
    20    18    20  ar
    21    21    18   1
    22    22    21   1
    23    21    27   1
    24    21    32   1
    25    22    23   1
    26    23    24   1
    27    24    25   1
    28    24    26   1
    29    26    27   1
    30    26    28   1
    31    28    29   1
    32    28    30   1
    33    30    31   1
    34    32    33   1
    35    33    34   1
    36    34    35   2
    37     6    36   1
    38     7    37   1
    39     8    38   1
    40     8    39   1
    41     9    40   1
    42    10    41   1
    43    11    42   1
    44    12    43   1
    45    13    44   1
    46    14    45   1
    47    15    46   1
    48    16    47   1
    49    22    48   1
    50    22    49   1
    51    23    50   1
    52    24    51   1
    53    25    52   1
    54    26    53   1
    55    28    54   1
    56    29    55   1
    57    30    56   1
    58    30    57   1
    59    31    58   1
    60    33    59   1
    61    33    60   1
    62    34    61   1
    63    35    62   1
    64    35    63   1
@<TRIPOS>SUBSTRUCTURE
     1  KO1      2

