@<TRIPOS>MOLECULE
2r23_ligand_014
    63    64
SMALL
GAST_HUCK
****
This file was generated by PARSER (from files_GN.cpp)

@<TRIPOS>ATOM
      1 OA1       -10.8826    3.7257   66.1935 O.co2       1 KO1      -0.5426
      2 C1        -10.3913    2.4654   66.1642 C.2         1 KO1       0.1068
      3 O1B       -11.1910    1.4786   65.6922 O.co2       1 KO1      -0.5426
      4 C2         -8.9691    2.1748   66.4613 C.3         1 KO1       0.2477
      5 O6         -8.1954    3.3806   66.2558 O.3         1 KO1      -0.3362
      6 C6         -6.7592    3.3269   66.4316 C.3         1 KO1       0.1171
      7 C7         -6.1556    4.7739   66.3269 C.3         1 KO1       0.1067
      8 C8         -7.1228    5.8398   65.7351 C.3         1 KO1       0.0727
      9 O8         -6.8745    7.1460   66.2358 O.3         1 KO1      -0.3924
     10 O7         -5.7225    5.2309   67.6159 O.3         1 KO1      -0.3869
     11 C5         -6.1442    2.2556   65.4713 C.3         1 KO1       0.1120
     12 O5         -6.1752    2.6855   64.1049 O.3         1 KO1      -0.3865
     13 C4         -6.9008    0.9055   65.6274 C.3         1 KO1       0.1139
     14 O4         -6.4622   -0.0634   64.6729 O.3         1 KO1      -0.3865
     15 C3         -8.4373    1.0802   65.4796 C.3         1 KO1       0.1429
     16 O3         -8.7560    1.4081   64.1194 O.3         1 KO1      -0.3844
     17 O2         -8.8395    1.6961   67.8273 O.3         1 KO1      -0.3388
     18 C1         -7.4965    2.5259   72.4502 C.2         1 KO1       0.1043
     19 O1A        -7.4969    1.1929   72.6986 O.co2       1 KO1      -0.5426
     20 O1B        -6.6904    3.2974   73.2267 O.co2       1 KO1      -0.5426
     21 C2         -8.3341    3.0887   71.3704 C.3         1 KO1       0.2225
     22 C3         -8.0700    2.2549   70.0745 C.3         1 KO1       0.0360
     23 C4         -9.0865    2.5923   68.9484 C.3         1 KO1       0.0937
     24 C5        -10.5416    2.4560   69.4763 C.3         1 KO1       0.1098
     25 O5        -10.8868    1.0831   69.6650 O.3         1 KO1      -0.3866
     26 C6        -10.7297    3.2866   70.7816 C.3         1 KO1       0.1170
     27 O6         -9.7194    2.9479   71.7614 O.3         1 KO1      -0.3380
     28 C7        -12.1143    3.1566   71.4887 C.3         1 KO1       0.1067
     29 O7        -12.2483    1.9035   72.1642 O.3         1 KO1      -0.3869
     30 C8        -13.3507    3.3893   70.5756 C.3         1 KO1       0.0727
     31 O8        -13.8712    2.1836   70.0172 O.3         1 KO1      -0.3924
     32 O2         -7.9675    4.4661   71.0817 O.3         1 KO1      -0.3323
     33 C9         -8.4037    5.5052   71.9855 C.3         1 KO1       0.0783
     34 C10        -8.0239    6.7814   71.4066 C.2         1 KO1      -0.0639
     35 C11        -8.8244    7.5311   70.6323 C.2         1 KO1      -0.1153
     36 H1         -6.5579    2.9670   67.4439 H           1 KO1       0.0649
     37 H2         -5.2552    4.7535   65.7074 H           1 KO1       0.0643
     38 H3         -8.1540    5.5901   65.9940 H           1 KO1       0.0584
     39 H4         -7.0306    5.8612   64.6471 H           1 KO1       0.0584
     40 H5         -7.4834    7.7121   65.7193 H           1 KO1       0.2095
     41 H6         -6.5195    5.1848   68.1851 H           1 KO1       0.2100
     42 H7         -5.0971    2.0897   65.7448 H           1 KO1       0.0647
     43 H8         -5.2563    2.9749   63.9215 H           1 KO1       0.2100
     44 H9         -6.6926    0.4926   66.6247 H           1 KO1       0.0647
     45 H10        -5.7808   -0.5939   65.1332 H           1 KO1       0.2100
     46 H11        -8.9201    0.1239   65.7080 H           1 KO1       0.0667
     47 H12        -8.4984    0.6193   63.5940 H           1 KO1       0.2100
     48 H13        -8.1458    1.1837   70.2828 H           1 KO1       0.0336
     49 H14        -7.0552    2.4465   69.7221 H           1 KO1       0.0336
     50 H15        -8.9132    3.6351   68.6559 H           1 KO1       0.0623
     51 H16       -11.2171    2.8605   68.7177 H           1 KO1       0.0646
     52 H17       -10.3937    0.7914   70.4598 H           1 KO1       0.2100
     53 H18       -10.6163    4.3419   70.5148 H           1 KO1       0.0649
     54 H19       -12.1457    3.9322   72.2645 H           1 KO1       0.0643
     55 H20       -11.5606    1.9111   72.8614 H           1 KO1       0.2100
     56 H21       -13.1087    4.0853   69.7671 H           1 KO1       0.0584
     57 H22       -14.1563    3.8367   71.1670 H           1 KO1       0.0584
     58 H23       -13.1851    1.8495   69.4021 H           1 KO1       0.2095
     59 H24        -7.9116    5.4273   72.9586 H           1 KO1       0.0740
     60 H25        -9.4838    5.4522   72.1508 H           1 KO1       0.0740
     61 H26        -7.1159    7.1362   71.6169 H           1 KO1       0.0695
     62 H27        -8.4996    8.4032   70.2836 H           1 KO1       0.0290
     63 H28        -9.7460    7.2380   70.4048 H           1 KO1       0.0290
@<TRIPOS>BOND
     1     2     1  ar
     2     2     3  ar
     3     4     2   1
     4     4     5   1
     5     4    15   1
     6    17     4   1
     7     5     6   1
     8     6     7   1
     9     6    11   1
    10     7     8   1
    11     7    10   1
    12     8     9   1
    13    11    12   1
    14    13    11   1
    15    13    14   1
    16    15    13   1
    17    15    16   1
    18    23    17   1
    19    18    19  ar
    20    18    20  ar
    21    21    18   1
    22    22    21   1
    23    21    27   1
    24    21    32   1
    25    22    23   1
    26    23    24   1
    27    24    25   1
    28    24    26   1
    29    26    27   1
    30    26    28   1
    31    28    29   1
    32    28    30   1
    33    30    31   1
    34    32    33   1
    35    33    34   1
    36    34    35   2
    37     6    36   1
    38     7    37   1
    39     8    38   1
    40     8    39   1
    41     9    40   1
    42    10    41   1
    43    11    42   1
    44    12    43   1
    45    13    44   1
    46    14    45   1
    47    15    46   1
    48    16    47   1
    49    22    48   1
    50    22    49   1
    51    23    50   1
    52    24    51   1
    53    25    52   1
    54    26    53   1
    55    28    54   1
    56    29    55   1
    57    30    56   1
    58    30    57   1
    59    31    58   1
    60    33    59   1
    61    33    60   1
    62    34    61   1
    63    35    62   1
    64    35    63   1
@<TRIPOS>SUBSTRUCTURE
     1  KO1      2

