@<TRIPOS>MOLECULE
2r23_ligand_026
    63    64
SMALL
GAST_HUCK
****
This file was generated by PARSER (from files_GN.cpp)

@<TRIPOS>ATOM
      1 OA1        -6.5551    5.8734   70.0911 O.co2       1 KO1      -0.5426
      2 C1         -5.9508    5.2454   69.0549 C.2         1 KO1       0.1068
      3 O1B        -5.8479    5.9290   67.8929 O.co2       1 KO1      -0.5426
      4 C2         -5.5982    3.7985   69.1044 C.3         1 KO1       0.2477
      5 O6         -5.9954    3.2027   70.3747 O.3         1 KO1      -0.3362
      6 C6         -5.6646    1.7980   70.5528 C.3         1 KO1       0.1171
      7 C7         -6.3356    1.1993   71.8359 C.3         1 KO1       0.1067
      8 C8         -5.4765    1.0529   73.1306 C.3         1 KO1       0.0727
      9 O8         -4.9820    2.3094   73.5954 O.3         1 KO1      -0.3924
     10 O7         -7.5135    1.9488   72.1693 O.3         1 KO1      -0.3869
     11 C5         -4.1313    1.5482   70.4043 C.3         1 KO1       0.1120
     12 O5         -3.3796    2.1227   71.4712 O.3         1 KO1      -0.3865
     13 C4         -3.6448    2.1433   69.0541 C.3         1 KO1       0.1139
     14 O4         -2.2388    1.9890   68.9090 O.3         1 KO1      -0.3865
     15 C3         -4.0565    3.6323   68.9002 C.3         1 KO1       0.1429
     16 O3         -3.2920    4.4067   69.8261 O.3         1 KO1      -0.3844
     17 O2         -6.2432    3.1156   68.0002 O.3         1 KO1      -0.3388
     18 C1        -10.0107    0.2364   66.8045 C.2         1 KO1       0.1043
     19 O1A        -9.1615   -0.5391   66.0968 O.co2       1 KO1      -0.5426
     20 O1B       -11.1237   -0.3445   67.3129 O.co2       1 KO1      -0.5426
     21 C2         -9.6749    1.6418   67.0840 C.3         1 KO1       0.2225
     22 C3         -8.2281    1.7083   67.6722 C.3         1 KO1       0.0360
     23 C4         -7.6660    3.1607   67.7446 C.3         1 KO1       0.0937
     24 C5         -7.8842    3.8888   66.3860 C.3         1 KO1       0.1098
     25 O5         -7.0193    3.3157   65.3886 O.3         1 KO1      -0.3866
     26 C6         -9.3761    3.7749   65.9290 C.3         1 KO1       0.1170
     27 O6         -9.7295    2.3790   65.8326 O.3         1 KO1      -0.3380
     28 C7         -9.7502    4.5284   64.6093 C.3         1 KO1       0.1067
     29 O7        -10.7778    3.8263   63.9035 O.3         1 KO1      -0.3869
     30 C8         -8.6027    4.7946   63.5928 C.3         1 KO1       0.0727
     31 O8         -7.9253    3.5891   63.2161 O.3         1 KO1      -0.3924
     32 O2        -10.5535    2.2194   68.0934 O.3         1 KO1      -0.3323
     33 C9        -11.9618    2.4032   67.8059 C.3         1 KO1       0.0783
     34 C10       -12.4032    3.6559   68.3882 C.2         1 KO1      -0.0639
     35 C11       -12.3462    3.9247   69.6976 C.2         1 KO1      -0.1153
     36 H1         -6.1408    1.2451   69.7405 H           1 KO1       0.0649
     37 H2         -6.6874    0.1840   71.5935 H           1 KO1       0.0643
     38 H3         -4.6293    0.3875   72.9424 H           1 KO1       0.0584
     39 H4         -6.0799    0.5961   73.9292 H           1 KO1       0.0584
     40 H5         -5.7733    2.7872   73.9389 H           1 KO1       0.2095
     41 H6         -7.2082    2.8822   72.2394 H           1 KO1       0.2100
     42 H7         -3.9495    0.4714   70.4097 H           1 KO1       0.0647
     43 H8         -2.6832    1.4645   71.6817 H           1 KO1       0.2100
     44 H9         -4.0987    1.5783   68.2383 H           1 KO1       0.0647
     45 H10        -1.8212    2.6763   69.4681 H           1 KO1       0.2100
     46 H11        -3.7810    3.9642   67.8967 H           1 KO1       0.0667
     47 H12        -3.6549    5.3171   69.8143 H           1 KO1       0.2100
     48 H13        -7.5450    1.0959   67.0699 H           1 KO1       0.0336
     49 H14        -8.2475    1.2968   68.6830 H           1 KO1       0.0336
     50 H15        -8.1896    3.7066   68.5363 H           1 KO1       0.0623
     51 H16        -7.6343    4.9543   66.4945 H           1 KO1       0.0646
     52 H17        -6.1177    3.5867   65.6477 H           1 KO1       0.2100
     53 H18        -9.9993    4.2525   66.6876 H           1 KO1       0.0649
     54 H19       -10.1710    5.5083   64.8779 H           1 KO1       0.0643
     55 H20       -11.3116    3.3891   64.6067 H           1 KO1       0.2100
     56 H21        -7.8800    5.4967   64.0167 H           1 KO1       0.0584
     57 H22        -8.9972    5.2793   62.6971 H           1 KO1       0.0584
     58 H23        -8.1469    2.9259   63.9075 H           1 KO1       0.2095
     59 H24       -12.5308    1.5765   68.2400 H           1 KO1       0.0740
     60 H25       -12.1623    2.4229   66.7281 H           1 KO1       0.0740
     61 H26       -12.7464    4.3662   67.7815 H           1 KO1       0.0695
     62 H27       -12.6419    4.8102   70.0410 H           1 KO1       0.0290
     63 H28       -12.0036    3.2585   70.3493 H           1 KO1       0.0290
@<TRIPOS>BOND
     1     2     1  ar
     2     2     3  ar
     3     4     2   1
     4     4     5   1
     5     4    15   1
     6    17     4   1
     7     5     6   1
     8     6     7   1
     9     6    11   1
    10     7     8   1
    11     7    10   1
    12     8     9   1
    13    11    12   1
    14    13    11   1
    15    13    14   1
    16    15    13   1
    17    15    16   1
    18    23    17   1
    19    18    19  ar
    20    18    20  ar
    21    21    18   1
    22    22    21   1
    23    21    27   1
    24    21    32   1
    25    22    23   1
    26    23    24   1
    27    24    25   1
    28    24    26   1
    29    26    27   1
    30    26    28   1
    31    28    29   1
    32    28    30   1
    33    30    31   1
    34    32    33   1
    35    33    34   1
    36    34    35   2
    37     6    36   1
    38     7    37   1
    39     8    38   1
    40     8    39   1
    41     9    40   1
    42    10    41   1
    43    11    42   1
    44    12    43   1
    45    13    44   1
    46    14    45   1
    47    15    46   1
    48    16    47   1
    49    22    48   1
    50    22    49   1
    51    23    50   1
    52    24    51   1
    53    25    52   1
    54    26    53   1
    55    28    54   1
    56    29    55   1
    57    30    56   1
    58    30    57   1
    59    31    58   1
    60    33    59   1
    61    33    60   1
    62    34    61   1
    63    35    62   1
    64    35    63   1
@<TRIPOS>SUBSTRUCTURE
     1  KO1      2

