@<TRIPOS>MOLECULE
2r23_ligand_011
    63    64
SMALL
GAST_HUCK
****
This file was generated by PARSER (from files_GN.cpp)

@<TRIPOS>ATOM
      1 OA1       -10.5508    4.4643   64.0130 O.co2       1 KO1      -0.5426
      2 C1        -10.2943    3.1346   64.1000 C.2         1 KO1       0.1068
      3 O1B       -11.0269    2.3084   63.3127 O.co2       1 KO1      -0.5426
      4 C2         -9.3399    2.6484   65.1191 C.3         1 KO1       0.2477
      5 O6         -8.2063    3.5341   64.9719 O.3         1 KO1      -0.3362
      6 C6         -7.0869    3.3325   65.8703 C.3         1 KO1       0.1171
      7 C7         -6.1069    4.5255   65.7090 C.3         1 KO1       0.1067
      8 C8         -6.8257    5.8999   65.8141 C.3         1 KO1       0.0727
      9 O8         -6.4594    6.6167   66.9955 O.3         1 KO1      -0.3924
     10 O7         -5.0824    4.4814   66.6992 O.3         1 KO1      -0.3869
     11 C5         -6.4753    1.9270   65.5801 C.3         1 KO1       0.1120
     12 O5         -5.8953    1.8677   64.2695 O.3         1 KO1      -0.3865
     13 C4         -7.5848    0.8458   65.7360 C.3         1 KO1       0.1139
     14 O4         -7.0934   -0.4432   65.3562 O.3         1 KO1      -0.3865
     15 C3         -8.8567    1.1702   64.9043 C.3         1 KO1       0.1429
     16 O3         -8.5813    0.9094   63.5245 O.3         1 KO1      -0.3844
     17 O2         -9.9029    2.9479   66.4258 O.3         1 KO1      -0.3388
     18 C1        -14.6760    1.8014   65.6429 C.2         1 KO1       0.1043
     19 O1A       -14.8131    0.9441   64.5984 O.co2       1 KO1      -0.5426
     20 O1B       -15.5512    2.8380   65.7127 O.co2       1 KO1      -0.5426
     21 C2        -13.5844    1.6207   66.6455 C.3         1 KO1       0.2225
     22 C3        -12.2405    2.0655   65.9742 C.3         1 KO1       0.0360
     23 C4        -11.0944    2.3550   66.9966 C.3         1 KO1       0.0937
     24 C5        -11.6185    3.3476   68.0839 C.3         1 KO1       0.1098
     25 O5        -11.8246    4.6293   67.4797 O.3         1 KO1      -0.3866
     26 C6        -12.9193    2.7981   68.7467 C.3         1 KO1       0.1170
     27 O6        -13.9200    2.4766   67.7636 O.3         1 KO1      -0.3380
     28 C7        -13.5441    3.7054   69.8448 C.3         1 KO1       0.1067
     29 O7        -14.6607    3.0217   70.4159 O.3         1 KO1      -0.3869
     30 C8        -14.0426    5.1231   69.4283 C.3         1 KO1       0.0727
     31 O8        -14.8601    5.1017   68.2591 O.3         1 KO1      -0.3924
     32 O2        -13.7503    0.2124   66.9603 O.3         1 KO1      -0.3323
     33 C9        -12.8076   -0.5717   67.7097 C.3         1 KO1       0.0783
     34 C10       -13.2173   -1.9691   67.6618 C.2         1 KO1      -0.0639
     35 C11       -12.4288   -2.9589   68.1187 C.2         1 KO1      -0.1153
     36 H1         -7.4296    3.3387   66.9098 H           1 KO1       0.0649
     37 H2         -5.6323    4.4657   64.7270 H           1 KO1       0.0643
     38 H3         -7.9147    5.7797   65.8099 H           1 KO1       0.0584
     39 H4         -6.5676    6.5247   64.9541 H           1 KO1       0.0584
     40 H5         -6.8111    6.0831   67.7380 H           1 KO1       0.2095
     41 H6         -4.3851    3.9037   66.3343 H           1 KO1       0.2100
     42 H7         -5.6803    1.7128   66.3065 H           1 KO1       0.0647
     43 H8         -4.9690    2.1800   64.3769 H           1 KO1       0.2100
     44 H9         -7.8614    0.7832   66.7934 H           1 KO1       0.0647
     45 H10        -6.1546   -0.4925   65.6370 H           1 KO1       0.2100
     46 H11        -9.6435    0.4783   65.1905 H           1 KO1       0.0667
     47 H12        -7.8463    1.5058   63.2766 H           1 KO1       0.2100
     48 H13       -12.4031    2.9832   65.3971 H           1 KO1       0.0336
     49 H14       -11.9205    1.2914   65.2777 H           1 KO1       0.0336
     50 H15       -10.8146    1.4135   67.4884 H           1 KO1       0.0623
     51 H16       -10.8431    3.4615   68.8514 H           1 KO1       0.0646
     52 H17       -10.9274    4.9569   67.2488 H           1 KO1       0.2100
     53 H18       -12.6412    1.8720   69.2463 H           1 KO1       0.0649
     54 H19       -12.8115    3.8424   70.6460 H           1 KO1       0.0643
     55 H20       -14.2855    2.2684   70.9168 H           1 KO1       0.2100
     56 H21       -13.1967    5.7970   69.2650 H           1 KO1       0.0584
     57 H22       -14.6389    5.5453   70.2405 H           1 KO1       0.0584
     58 H23       -14.2540    4.8529   67.5295 H           1 KO1       0.2095
     59 H24       -12.7732   -0.2478   68.7550 H           1 KO1       0.0740
     60 H25       -11.8073   -0.4774   67.2713 H           1 KO1       0.0740
     61 H26       -14.1053   -2.2139   67.2861 H           1 KO1       0.0695
     62 H27       -12.7354   -3.9070   68.0737 H           1 KO1       0.0290
     63 H28       -11.5251   -2.7648   68.4924 H           1 KO1       0.0290
@<TRIPOS>BOND
     1     2     1  ar
     2     2     3  ar
     3     4     2   1
     4     4     5   1
     5     4    15   1
     6    17     4   1
     7     5     6   1
     8     6     7   1
     9     6    11   1
    10     7     8   1
    11     7    10   1
    12     8     9   1
    13    11    12   1
    14    13    11   1
    15    13    14   1
    16    15    13   1
    17    15    16   1
    18    23    17   1
    19    18    19  ar
    20    18    20  ar
    21    21    18   1
    22    22    21   1
    23    21    27   1
    24    21    32   1
    25    22    23   1
    26    23    24   1
    27    24    25   1
    28    24    26   1
    29    26    27   1
    30    26    28   1
    31    28    29   1
    32    28    30   1
    33    30    31   1
    34    32    33   1
    35    33    34   1
    36    34    35   2
    37     6    36   1
    38     7    37   1
    39     8    38   1
    40     8    39   1
    41     9    40   1
    42    10    41   1
    43    11    42   1
    44    12    43   1
    45    13    44   1
    46    14    45   1
    47    15    46   1
    48    16    47   1
    49    22    48   1
    50    22    49   1
    51    23    50   1
    52    24    51   1
    53    25    52   1
    54    26    53   1
    55    28    54   1
    56    29    55   1
    57    30    56   1
    58    30    57   1
    59    31    58   1
    60    33    59   1
    61    33    60   1
    62    34    61   1
    63    35    62   1
    64    35    63   1
@<TRIPOS>SUBSTRUCTURE
     1  KO1      2

