@<TRIPOS>MOLECULE
2r23_ligand_025
    63    64
SMALL
GAST_HUCK
****
This file was generated by PARSER (from files_GN.cpp)

@<TRIPOS>ATOM
      1 OA1       -10.4218    3.6974   71.0859 O.co2       1 KO1      -0.5426
      2 C1        -10.2869    2.4155   70.6842 C.2         1 KO1       0.1068
      3 O1B        -9.3921    1.6452   71.3566 O.co2       1 KO1      -0.5426
      4 C2        -10.7757    2.0133   69.3376 C.3         1 KO1       0.2477
      5 O6        -12.0974    2.6010   69.2336 O.3         1 KO1      -0.3362
      6 C6        -12.8250    2.4102   67.9935 C.3         1 KO1       0.1171
      7 C7        -14.1483    3.2278   68.0577 C.3         1 KO1       0.1067
      8 C8        -13.9203    4.7628   68.0279 C.3         1 KO1       0.0727
      9 O8        -13.3808    5.2012   66.7828 O.3         1 KO1      -0.3924
     10 O7        -15.0191    2.8737   66.9814 O.3         1 KO1      -0.3869
     11 C5        -13.0452    0.8871   67.7328 C.3         1 KO1       0.1120
     12 O5        -14.0443    0.3431   68.6012 O.3         1 KO1      -0.3865
     13 C4        -11.6973    0.1235   67.8543 C.3         1 KO1       0.1139
     14 O4        -11.9028   -1.2844   67.7370 O.3         1 KO1      -0.3865
     15 C3        -10.9168    0.4615   69.1544 C.3         1 KO1       0.1429
     16 O3        -11.5404   -0.1432   70.2917 O.3         1 KO1      -0.3844
     17 O2         -9.9594    2.6311   68.3098 O.3         1 KO1      -0.3388
     18 C1         -5.1583    4.0671   68.1389 C.2         1 KO1       0.1043
     19 O1A        -5.5407    5.3514   68.3687 O.co2       1 KO1      -0.5426
     20 O1B        -3.8384    3.7808   68.0988 O.co2       1 KO1      -0.5426
     21 C2         -6.1368    2.9593   68.0210 C.3         1 KO1       0.2225
     22 C3         -7.6089    3.3513   68.3931 C.3         1 KO1       0.0360
     23 C4         -8.5992    2.2055   68.0431 C.3         1 KO1       0.0937
     24 C5         -8.4674    1.8491   66.5329 C.3         1 KO1       0.1098
     25 O5         -8.9195    2.9416   65.7242 O.3         1 KO1      -0.3866
     26 C6         -6.9846    1.5012   66.1902 C.3         1 KO1       0.1170
     27 O6         -6.1123    2.5843   66.6176 O.3         1 KO1      -0.3380
     28 C7         -6.6891    1.2076   64.6825 C.3         1 KO1       0.1067
     29 O7         -6.2219    2.3692   63.9895 O.3         1 KO1      -0.3869
     30 C8         -7.8602    0.5672   63.8883 C.3         1 KO1       0.0727
     31 O8         -8.8387    1.5187   63.4859 O.3         1 KO1      -0.3924
     32 O2         -5.6127    1.8231   68.7545 O.3         1 KO1      -0.3323
     33 C9         -5.9528    1.5833   70.1361 C.3         1 KO1       0.0783
     34 C10        -4.8394    0.9736   70.8379 C.2         1 KO1      -0.0639
     35 C11        -4.2437   -0.1595   70.4384 C.2         1 KO1      -0.1153
     36 H1        -12.2315    2.8099   67.1600 H           1 KO1       0.0649
     37 H2        -14.6607    2.9821   68.9926 H           1 KO1       0.0643
     38 H3        -13.2362    5.0556   68.8230 H           1 KO1       0.0584
     39 H4        -14.8691    5.2726   68.1930 H           1 KO1       0.0584
     40 H5        -14.0953    5.0675   66.1245 H           1 KO1       0.2095
     41 H6        -15.9077    3.1865   67.2539 H           1 KO1       0.2100
     42 H7        -13.4159    0.7550   66.7109 H           1 KO1       0.0647
     43 H8        -13.9860    0.8464   69.4367 H           1 KO1       0.2100
     44 H9        -11.0761    0.4114   67.0055 H           1 KO1       0.0647
     45 H10       -12.4593   -1.5390   68.5018 H           1 KO1       0.2100
     46 H11        -9.9252    0.0105   69.0773 H           1 KO1       0.0667
     47 H12       -12.1761    0.5145   70.6371 H           1 KO1       0.2100
     48 H13        -7.8981    4.2406   67.8269 H           1 KO1       0.0336
     49 H14        -7.6847    3.5997   69.4558 H           1 KO1       0.0336
     50 H15        -8.3336    1.3220   68.6327 H           1 KO1       0.0623
     51 H16        -9.1039    0.9823   66.3322 H           1 KO1       0.0646
     52 H17        -9.8913    2.9624   65.8459 H           1 KO1       0.2100
     53 H18        -6.7193    0.5895   66.7440 H           1 KO1       0.0649
     54 H19        -5.8658    0.4860   64.6586 H           1 KO1       0.0643
     55 H20        -5.3643    2.6086   64.4189 H           1 KO1       0.2100
     56 H21        -8.3477   -0.2007   64.4945 H           1 KO1       0.0584
     57 H22        -7.4741    0.0819   62.9871 H           1 KO1       0.0584
     58 H23        -8.7184    1.6065   62.5157 H           1 KO1       0.2095
     59 H24        -6.8007    0.9012   70.1413 H           1 KO1       0.0740
     60 H25        -6.2542    2.4928   70.6679 H           1 KO1       0.0740
     61 H26        -4.4829    1.4275   71.6521 H           1 KO1       0.0695
     62 H27        -3.4957   -0.5436   70.9734 H           1 KO1       0.0290
     63 H28        -4.5284   -0.6239   69.6020 H           1 KO1       0.0290
@<TRIPOS>BOND
     1     2     1  ar
     2     2     3  ar
     3     4     2   1
     4     4     5   1
     5     4    15   1
     6    17     4   1
     7     5     6   1
     8     6     7   1
     9     6    11   1
    10     7     8   1
    11     7    10   1
    12     8     9   1
    13    11    12   1
    14    13    11   1
    15    13    14   1
    16    15    13   1
    17    15    16   1
    18    23    17   1
    19    18    19  ar
    20    18    20  ar
    21    21    18   1
    22    22    21   1
    23    21    27   1
    24    21    32   1
    25    22    23   1
    26    23    24   1
    27    24    25   1
    28    24    26   1
    29    26    27   1
    30    26    28   1
    31    28    29   1
    32    28    30   1
    33    30    31   1
    34    32    33   1
    35    33    34   1
    36    34    35   2
    37     6    36   1
    38     7    37   1
    39     8    38   1
    40     8    39   1
    41     9    40   1
    42    10    41   1
    43    11    42   1
    44    12    43   1
    45    13    44   1
    46    14    45   1
    47    15    46   1
    48    16    47   1
    49    22    48   1
    50    22    49   1
    51    23    50   1
    52    24    51   1
    53    25    52   1
    54    26    53   1
    55    28    54   1
    56    29    55   1
    57    30    56   1
    58    30    57   1
    59    31    58   1
    60    33    59   1
    61    33    60   1
    62    34    61   1
    63    35    62   1
    64    35    63   1
@<TRIPOS>SUBSTRUCTURE
     1  KO1      2

