@<TRIPOS>MOLECULE
2r23_ligand_042
    63    64
SMALL
GAST_HUCK
****
This file was generated by PARSER (from files_GN.cpp)

@<TRIPOS>ATOM
      1 OA1        -4.3649    2.1090   70.2331 O.co2       1 KO1      -0.5426
      2 C1         -5.1887    1.0408   70.3290 C.2         1 KO1       0.1068
      3 O1B        -5.0928    0.0818   69.3781 O.co2       1 KO1      -0.5426
      4 C2         -6.2605    0.9745   71.3515 C.3         1 KO1       0.2477
      5 O6         -5.9272    1.8744   72.4420 O.3         1 KO1      -0.3362
      6 C6         -6.8147    1.9223   73.5811 C.3         1 KO1       0.1171
      7 C7         -6.3305    3.0771   74.5170 C.3         1 KO1       0.1067
      8 C8         -7.1413    3.2619   75.8254 C.3         1 KO1       0.0727
      9 O8         -8.5279    3.4446   75.5576 O.3         1 KO1      -0.3924
     10 O7         -4.9458    2.9393   74.8342 O.3         1 KO1      -0.3869
     11 C5         -6.9469    0.5106   74.2320 C.3         1 KO1       0.1120
     12 O5         -5.7780    0.1278   74.9597 O.3         1 KO1      -0.3865
     13 C4         -7.3057   -0.5447   73.1455 C.3         1 KO1       0.1139
     14 O4         -7.3320   -1.8620   73.6944 O.3         1 KO1      -0.3865
     15 C3         -6.3659   -0.4838   71.9099 C.3         1 KO1       0.1429
     16 O3         -5.0909   -1.0471   72.2183 O.3         1 KO1      -0.3844
     17 O2         -7.5434    1.3051   70.7492 O.3         1 KO1      -0.3388
     18 C1        -11.0322    4.7065   69.7378 C.2         1 KO1       0.1043
     19 O1A       -11.4550    5.8299   69.1153 O.co2       1 KO1      -0.5426
     20 O1B       -11.9552    3.9736   70.3964 O.co2       1 KO1      -0.5426
     21 C2         -9.5853    4.3682   69.7267 C.3         1 KO1       0.2225
     22 C3         -9.2597    2.9861   70.3835 C.3         1 KO1       0.0360
     23 C4         -7.7744    2.5995   70.1438 C.3         1 KO1       0.0937
     24 C5         -7.4978    2.5785   68.6106 C.3         1 KO1       0.1098
     25 O5         -8.2358    1.5133   68.0037 O.3         1 KO1      -0.3866
     26 C6         -7.8732    3.9486   67.9673 C.3         1 KO1       0.1170
     27 O6         -9.2419    4.2840   68.3166 O.3         1 KO1      -0.3380
     28 C7         -7.6908    4.0355   66.4051 C.3         1 KO1       0.1067
     29 O7         -7.6359    2.7600   65.7650 O.3         1 KO1      -0.3869
     30 C8         -6.4308    4.8285   65.9604 C.3         1 KO1       0.0727
     31 O8         -6.6035    6.2351   66.1073 O.3         1 KO1      -0.3924
     32 O2         -8.8022    5.4436   70.3059 O.3         1 KO1      -0.3323
     33 C9         -9.1409    6.0085   71.5938 C.3         1 KO1       0.0783
     34 C10        -8.0605    6.8381   72.0665 C.2         1 KO1      -0.0639
     35 C11        -8.0931    7.4582   73.2579 C.2         1 KO1      -0.1153
     36 H1         -7.8099    2.2132   73.2250 H           1 KO1       0.0649
     37 H2         -6.4206    4.0094   73.9525 H           1 KO1       0.0643
     38 H3         -6.7723    4.1420   76.3559 H           1 KO1       0.0584
     39 H4         -7.0185    2.3942   76.4746 H           1 KO1       0.0584
     40 H5         -8.9446    3.5599   76.4390 H           1 KO1       0.2095
     41 H6         -4.8957    2.2465   75.5256 H           1 KO1       0.2100
     42 H7         -7.7660    0.5284   74.9576 H           1 KO1       0.0647
     43 H8         -5.0143    0.3199   74.3796 H           1 KO1       0.2100
     44 H9         -8.3273   -0.3416   72.8043 H           1 KO1       0.0647
     45 H10        -6.4191   -2.0350   74.0087 H           1 KO1       0.2100
     46 H11        -6.7967   -1.1271   71.1329 H           1 KO1       0.0667
     47 H12        -4.4834   -0.2919   72.3653 H           1 KO1       0.2100
     48 H13        -9.9055    2.2146   69.9473 H           1 KO1       0.0336
     49 H14        -9.4681    3.0027   71.4523 H           1 KO1       0.0336
     50 H15        -7.1387    3.3563   70.6108 H           1 KO1       0.0623
     51 H16        -6.4379    2.4003   68.4330 H           1 KO1       0.0646
     52 H17        -7.8357    0.6901   68.3560 H           1 KO1       0.2100
     53 H18        -7.2188    4.6939   68.4270 H           1 KO1       0.0649
     54 H19        -8.5630    4.5366   65.9733 H           1 KO1       0.0643
     55 H20        -6.7961    2.3508   66.0632 H           1 KO1       0.2100
     56 H21        -6.2176    4.6299   64.9073 H           1 KO1       0.0584
     57 H22        -5.5642    4.5143   66.5450 H           1 KO1       0.0584
     58 H23        -6.8497    6.3765   67.0449 H           1 KO1       0.2095
     59 H24        -9.3242    5.2275   72.3351 H           1 KO1       0.0740
     60 H25       -10.0501    6.6098   71.4918 H           1 KO1       0.0740
     61 H26        -7.2357    6.9260   71.5193 H           1 KO1       0.0695
     62 H27        -7.3229    8.0015   73.5579 H           1 KO1       0.0290
     63 H28        -8.8783    7.3700   73.8597 H           1 KO1       0.0290
@<TRIPOS>BOND
     1     2     1  ar
     2     2     3  ar
     3     4     2   1
     4     4     5   1
     5     4    15   1
     6    17     4   1
     7     5     6   1
     8     6     7   1
     9     6    11   1
    10     7     8   1
    11     7    10   1
    12     8     9   1
    13    11    12   1
    14    13    11   1
    15    13    14   1
    16    15    13   1
    17    15    16   1
    18    23    17   1
    19    18    19  ar
    20    18    20  ar
    21    21    18   1
    22    22    21   1
    23    21    27   1
    24    21    32   1
    25    22    23   1
    26    23    24   1
    27    24    25   1
    28    24    26   1
    29    26    27   1
    30    26    28   1
    31    28    29   1
    32    28    30   1
    33    30    31   1
    34    32    33   1
    35    33    34   1
    36    34    35   2
    37     6    36   1
    38     7    37   1
    39     8    38   1
    40     8    39   1
    41     9    40   1
    42    10    41   1
    43    11    42   1
    44    12    43   1
    45    13    44   1
    46    14    45   1
    47    15    46   1
    48    16    47   1
    49    22    48   1
    50    22    49   1
    51    23    50   1
    52    24    51   1
    53    25    52   1
    54    26    53   1
    55    28    54   1
    56    29    55   1
    57    30    56   1
    58    30    57   1
    59    31    58   1
    60    33    59   1
    61    33    60   1
    62    34    61   1
    63    35    62   1
    64    35    63   1
@<TRIPOS>SUBSTRUCTURE
     1  KO1      2

