@<TRIPOS>MOLECULE
2r23_ligand_044
    63    64
SMALL
GAST_HUCK
****
This file was generated by PARSER (from files_GN.cpp)

@<TRIPOS>ATOM
      1 OA1       -11.0182    4.2303   64.4722 O.co2       1 KO1      -0.5426
      2 C1        -11.2734    4.1050   65.7988 C.2         1 KO1       0.1068
      3 O1B       -12.2484    3.2367   66.1445 O.co2       1 KO1      -0.5426
      4 C2        -10.4583    4.7695   66.8611 C.3         1 KO1       0.2477
      5 O6        -11.4277    5.5197   67.6406 O.3         1 KO1      -0.3362
      6 C6        -10.9590    6.3434   68.7418 C.3         1 KO1       0.1171
      7 C7        -12.2051    6.9631   69.4518 C.3         1 KO1       0.1067
      8 C8        -11.8908    7.8606   70.6784 C.3         1 KO1       0.0727
      9 O8        -11.2971    9.1080   70.3247 O.3         1 KO1      -0.3924
     10 O7        -13.0133    7.7091   68.5374 O.3         1 KO1      -0.3869
     11 C5         -9.9037    7.3839   68.2472 C.3         1 KO1       0.1120
     12 O5        -10.5121    8.4578   67.5259 O.3         1 KO1      -0.3865
     13 C4         -8.8095    6.6893   67.3959 C.3         1 KO1       0.1139
     14 O4         -7.8905    7.6461   66.8591 O.3         1 KO1      -0.3865
     15 C3         -9.4335    5.8091   66.2760 C.3         1 KO1       0.1429
     16 O3        -10.0461    6.6486   65.2911 O.3         1 KO1      -0.3844
     17 O2         -9.8097    3.8098   67.7636 O.3         1 KO1      -0.3388
     18 C1         -7.2899   -0.3194   69.1418 C.2         1 KO1       0.1043
     19 O1A        -7.6576   -0.4493   70.4366 O.co2       1 KO1      -0.5426
     20 O1B        -6.0608   -0.7861   68.8154 O.co2       1 KO1      -0.5426
     21 C2         -8.1974    0.3015   68.1317 C.3         1 KO1       0.2225
     22 C3         -8.6251    1.7557   68.5485 C.3         1 KO1       0.0360
     23 C4         -9.3518    2.4836   67.3726 C.3         1 KO1       0.0937
     24 C5         -8.3962    2.5150   66.1644 C.3         1 KO1       0.1098
     25 O5         -7.2866    3.3624   66.4833 O.3         1 KO1      -0.3866
     26 C6         -7.9323    1.0806   65.7761 C.3         1 KO1       0.1170
     27 O6         -7.3963    0.3873   66.9195 O.3         1 KO1      -0.3380
     28 C7         -6.9213    1.0597   64.5870 C.3         1 KO1       0.1067
     29 O7         -6.6634   -0.2982   64.2280 O.3         1 KO1      -0.3869
     30 C8         -5.5631    1.8163   64.7473 C.3         1 KO1       0.0727
     31 O8         -5.1473    2.1254   66.0768 O.3         1 KO1      -0.3924
     32 O2         -9.3561   -0.5368   67.8349 O.3         1 KO1      -0.3323
     33 C9        -10.1947   -1.0296   68.9074 C.3         1 KO1       0.0783
     34 C10       -11.5371   -1.3588   68.4622 C.2         1 KO1      -0.0639
     35 C11       -12.5399   -1.5538   69.3227 C.2         1 KO1      -0.1153
     36 H1        -10.4710    5.6881   69.4705 H           1 KO1       0.0649
     37 H2        -12.8150    6.1305   69.8179 H           1 KO1       0.0643
     38 H3        -11.2176    7.3386   71.3606 H           1 KO1       0.0584
     39 H4        -12.8170    8.0757   71.2156 H           1 KO1       0.0584
     40 H5        -11.9141    9.5237   69.6858 H           1 KO1       0.2095
     41 H6        -13.8306    7.1841   68.4041 H           1 KO1       0.2100
     42 H7         -9.4050    7.8298   69.1114 H           1 KO1       0.0647
     43 H8        -11.2348    8.0530   67.0034 H           1 KO1       0.2100
     44 H9         -8.2200    6.0495   68.0604 H           1 KO1       0.0647
     45 H10        -8.3233    8.0118   66.0588 H           1 KO1       0.2100
     46 H11        -8.6222    5.3044   65.7592 H           1 KO1       0.0667
     47 H12       -10.9062    6.9192   65.6702 H           1 KO1       0.2100
     48 H13        -7.7341    2.3282   68.8275 H           1 KO1       0.0336
     49 H14        -9.2744    1.7459   69.4261 H           1 KO1       0.0336
     50 H15       -10.2311    1.8889   67.1127 H           1 KO1       0.0623
     51 H16        -8.8758    2.9509   65.2965 H           1 KO1       0.0646
     52 H17        -7.5566    3.9564   67.2359 H           1 KO1       0.2100
     53 H18        -8.8221    0.5256   65.4419 H           1 KO1       0.0649
     54 H19        -7.4392    1.4903   63.7229 H           1 KO1       0.0643
     55 H20        -6.0267   -0.6337   64.8941 H           1 KO1       0.2100
     56 H21        -5.6123    2.7611   64.1932 H           1 KO1       0.0584
     57 H22        -4.7458    1.2400   64.3285 H           1 KO1       0.0584
     58 H23        -5.3157    1.3188   66.6128 H           1 KO1       0.2095
     59 H24       -10.2748   -0.2877   69.7039 H           1 KO1       0.0740
     60 H25        -9.7402   -1.9327   69.3200 H           1 KO1       0.0740
     61 H26       -11.7223   -1.4288   67.4866 H           1 KO1       0.0695
     62 H27       -13.4554   -1.7629   68.9978 H           1 KO1       0.0290
     63 H28       -12.4023   -1.4576   70.3037 H           1 KO1       0.0290
@<TRIPOS>BOND
     1     2     1  ar
     2     2     3  ar
     3     4     2   1
     4     4     5   1
     5     4    15   1
     6    17     4   1
     7     5     6   1
     8     6     7   1
     9     6    11   1
    10     7     8   1
    11     7    10   1
    12     8     9   1
    13    11    12   1
    14    13    11   1
    15    13    14   1
    16    15    13   1
    17    15    16   1
    18    23    17   1
    19    18    19  ar
    20    18    20  ar
    21    21    18   1
    22    22    21   1
    23    21    27   1
    24    21    32   1
    25    22    23   1
    26    23    24   1
    27    24    25   1
    28    24    26   1
    29    26    27   1
    30    26    28   1
    31    28    29   1
    32    28    30   1
    33    30    31   1
    34    32    33   1
    35    33    34   1
    36    34    35   2
    37     6    36   1
    38     7    37   1
    39     8    38   1
    40     8    39   1
    41     9    40   1
    42    10    41   1
    43    11    42   1
    44    12    43   1
    45    13    44   1
    46    14    45   1
    47    15    46   1
    48    16    47   1
    49    22    48   1
    50    22    49   1
    51    23    50   1
    52    24    51   1
    53    25    52   1
    54    26    53   1
    55    28    54   1
    56    29    55   1
    57    30    56   1
    58    30    57   1
    59    31    58   1
    60    33    59   1
    61    33    60   1
    62    34    61   1
    63    35    62   1
    64    35    63   1
@<TRIPOS>SUBSTRUCTURE
     1  KO1      2

