@<TRIPOS>MOLECULE
2r23_ligand_031
    63    64
SMALL
GAST_HUCK
****
This file was generated by PARSER (from files_GN.cpp)

@<TRIPOS>ATOM
      1 OA1       -10.9030    4.8596   64.0620 O.co2       1 KO1      -0.5426
      2 C1         -9.6750    4.8050   64.6467 C.2         1 KO1       0.1068
      3 O1B        -8.6711    4.3088   63.8928 O.co2       1 KO1      -0.5426
      4 C2         -9.5146    5.1702   66.0861 C.3         1 KO1       0.2477
      5 O6        -10.2390    6.4165   66.1855 O.3         1 KO1      -0.3362
      6 C6        -10.2652    7.0884   67.4657 C.3         1 KO1       0.1171
      7 C7        -11.2195    8.3103   67.3141 C.3         1 KO1       0.1067
      8 C8        -11.2448    9.2694   68.5390 C.3         1 KO1       0.0727
      9 O8        -10.2174   10.2507   68.4849 O.3         1 KO1      -0.3924
     10 O7        -10.9238    9.0370   66.1236 O.3         1 KO1      -0.3869
     11 C5         -8.8145    7.3908   67.9601 C.3         1 KO1       0.1120
     12 O5         -8.1927    8.4485   67.2178 O.3         1 KO1      -0.3865
     13 C4         -7.9680    6.0900   67.9187 C.3         1 KO1       0.1139
     14 O4         -6.6128    6.3276   68.2953 O.3         1 KO1      -0.3865
     15 C3         -8.0174    5.3970   66.5302 C.3         1 KO1       0.1429
     16 O3         -7.2471    6.1286   65.5956 O.3         1 KO1      -0.3844
     17 O2        -10.1778    4.2306   66.9817 O.3         1 KO1      -0.3388
     18 C1        -10.4261   -0.0326   69.4991 C.2         1 KO1       0.1043
     19 O1A        -9.4708    0.3015   70.4004 O.co2       1 KO1      -0.5426
     20 O1B       -11.1106   -1.1804   69.7429 O.co2       1 KO1      -0.5426
     21 C2        -10.4110    0.5699   68.1424 C.3         1 KO1       0.2225
     22 C3        -10.5236    2.1321   68.1979 C.3         1 KO1       0.0360
     23 C4        -10.0758    2.7929   66.8667 C.3         1 KO1       0.0937
     24 C5         -8.6673    2.2666   66.4988 C.3         1 KO1       0.1098
     25 O5         -7.6995    2.6482   67.4803 O.3         1 KO1      -0.3866
     26 C6         -8.6785    0.7282   66.3631 C.3         1 KO1       0.1170
     27 O6         -9.1168    0.1655   67.6204 O.3         1 KO1      -0.3380
     28 C7         -7.2953    0.1083   65.9802 C.3         1 KO1       0.1067
     29 O7         -6.5562   -0.2767   67.1410 O.3         1 KO1      -0.3869
     30 C8         -6.3855    0.9508   65.0432 C.3         1 KO1       0.0727
     31 O8         -5.5883    1.8653   65.7869 O.3         1 KO1      -0.3924
     32 O2        -11.4136   -0.0330   67.2726 O.3         1 KO1      -0.3323
     33 C9        -12.8183    0.0631   67.6060 C.3         1 KO1       0.0783
     34 C10       -13.5078    1.0603   66.8059 C.2         1 KO1      -0.0639
     35 C11       -14.7415    1.4970   67.0980 C.2         1 KO1      -0.1153
     36 H1        -10.7386    6.4130   68.1924 H           1 KO1       0.0649
     37 H2        -12.2360    7.9201   67.1989 H           1 KO1       0.0643
     38 H3        -11.1421    8.6979   69.4671 H           1 KO1       0.0584
     39 H4        -12.2068    9.7951   68.5624 H           1 KO1       0.0584
     40 H5        -10.4933   10.8760   67.7824 H           1 KO1       0.2095
     41 H6        -10.3899    8.4284   65.5765 H           1 KO1       0.2100
     42 H7         -8.8567    7.7220   69.0081 H           1 KO1       0.0647
     43 H8         -8.4289    8.2995   66.2797 H           1 KO1       0.2100
     44 H9         -8.3782    5.3999   68.6694 H           1 KO1       0.0647
     45 H10        -6.1692    6.5862   67.4635 H           1 KO1       0.2100
     46 H11        -7.4856    4.4471   66.6221 H           1 KO1       0.0667
     47 H12        -7.8515    6.7946   65.2158 H           1 KO1       0.2100
     48 H13        -9.9013    2.5288   69.0042 H           1 KO1       0.0336
     49 H14       -11.5545    2.4191   68.4201 H           1 KO1       0.0336
     50 H15       -10.7794    2.4835   66.0853 H           1 KO1       0.0623
     51 H16        -8.3782    2.6815   65.5378 H           1 KO1       0.0646
     52 H17        -8.1760    3.2018   68.1437 H           1 KO1       0.2100
     53 H18        -9.3848    0.4618   65.5737 H           1 KO1       0.0649
     54 H19        -7.5228   -0.8111   65.4486 H           1 KO1       0.0643
     55 H20        -6.3978    0.5491   67.6422 H           1 KO1       0.2100
     56 H21        -6.9889    1.4941   64.3145 H           1 KO1       0.0584
     57 H22        -5.7239    0.2858   64.4993 H           1 KO1       0.0584
     58 H23        -4.8895    2.1923   65.1752 H           1 KO1       0.2095
     59 H24       -12.9773    0.2823   68.6670 H           1 KO1       0.0740
     60 H25       -13.2596   -0.9149   67.4013 H           1 KO1       0.0740
     61 H26       -13.0457    1.4448   66.0108 H           1 KO1       0.0695
     62 H27       -15.1728    2.1879   66.5238 H           1 KO1       0.0290
     63 H28       -15.2392    1.1358   67.8856 H           1 KO1       0.0290
@<TRIPOS>BOND
     1     2     1  ar
     2     2     3  ar
     3     4     2   1
     4     4     5   1
     5     4    15   1
     6    17     4   1
     7     5     6   1
     8     6     7   1
     9     6    11   1
    10     7     8   1
    11     7    10   1
    12     8     9   1
    13    11    12   1
    14    13    11   1
    15    13    14   1
    16    15    13   1
    17    15    16   1
    18    23    17   1
    19    18    19  ar
    20    18    20  ar
    21    21    18   1
    22    22    21   1
    23    21    27   1
    24    21    32   1
    25    22    23   1
    26    23    24   1
    27    24    25   1
    28    24    26   1
    29    26    27   1
    30    26    28   1
    31    28    29   1
    32    28    30   1
    33    30    31   1
    34    32    33   1
    35    33    34   1
    36    34    35   2
    37     6    36   1
    38     7    37   1
    39     8    38   1
    40     8    39   1
    41     9    40   1
    42    10    41   1
    43    11    42   1
    44    12    43   1
    45    13    44   1
    46    14    45   1
    47    15    46   1
    48    16    47   1
    49    22    48   1
    50    22    49   1
    51    23    50   1
    52    24    51   1
    53    25    52   1
    54    26    53   1
    55    28    54   1
    56    29    55   1
    57    30    56   1
    58    30    57   1
    59    31    58   1
    60    33    59   1
    61    33    60   1
    62    34    61   1
    63    35    62   1
    64    35    63   1
@<TRIPOS>SUBSTRUCTURE
     1  KO1      2

