@<TRIPOS>MOLECULE
2r23_ligand_037
    63    64
SMALL
GAST_HUCK
****
This file was generated by PARSER (from files_GN.cpp)

@<TRIPOS>ATOM
      1 OA1        -8.8822    3.2326   71.0775 O.co2       1 KO1      -0.5426
      2 C1         -8.4899    2.3423   70.1335 C.2         1 KO1       0.1068
      3 O1B        -7.3257    1.7108   70.3951 O.co2       1 KO1      -0.5426
      4 C2         -9.5168    1.6899   69.2846 C.3         1 KO1       0.2477
      5 O6         -9.9076    0.5225   70.0496 O.3         1 KO1      -0.3362
      6 C6        -10.8937   -0.3802   69.4922 C.3         1 KO1       0.1171
      7 C7        -11.2145   -1.4600   70.5694 C.3         1 KO1       0.1067
      8 C8        -11.9830   -2.7103   70.0559 C.3         1 KO1       0.0727
      9 O8        -11.3032   -3.4056   69.0108 O.3         1 KO1      -0.3924
     10 O7        -10.0515   -1.8535   71.2969 O.3         1 KO1      -0.3869
     11 C5        -10.4165   -0.9264   68.1128 C.3         1 KO1       0.1120
     12 O5         -9.3866   -1.9050   68.2425 O.3         1 KO1      -0.3865
     13 C4         -9.9850    0.2561   67.1981 C.3         1 KO1       0.1139
     14 O4         -9.4636   -0.2352   65.9627 O.3         1 KO1      -0.3865
     15 C3         -8.9731    1.2178   67.8831 C.3         1 KO1       0.1429
     16 O3         -7.6936    0.5829   67.9646 O.3         1 KO1      -0.3844
     17 O2        -10.6836    2.5666   69.1847 O.3         1 KO1      -0.3388
     18 C1        -12.1426    7.3747   68.9571 C.2         1 KO1       0.1043
     19 O1A       -12.0741    8.6045   68.3999 O.co2       1 KO1      -0.5426
     20 O1B       -13.3080    7.0905   69.5900 O.co2       1 KO1      -0.5426
     21 C2        -11.3242    6.2833   68.3660 C.3         1 KO1       0.2225
     22 C3        -11.3448    4.9634   69.2125 C.3         1 KO1       0.0360
     23 C4        -10.6365    3.8143   68.4355 C.3         1 KO1       0.0937
     24 C5        -11.3439    3.6154   67.0631 C.3         1 KO1       0.1098
     25 O5        -12.6426    3.0530   67.2628 O.3         1 KO1      -0.3866
     26 C6        -11.4331    4.9542   66.2688 C.3         1 KO1       0.1170
     27 O6        -11.9765    6.0104   67.1026 O.3         1 KO1      -0.3380
     28 C7        -12.2766    4.8970   64.9577 C.3         1 KO1       0.1067
     29 O7        -13.6171    5.3490   65.1636 O.3         1 KO1      -0.3869
     30 C8        -12.2887    3.5213   64.2254 C.3         1 KO1       0.0727
     31 O8        -13.2413    2.6060   64.7744 O.3         1 KO1      -0.3924
     32 O2         -9.9654    6.7340   68.0755 O.3         1 KO1      -0.3323
     33 C9         -9.0787    7.3147   69.0601 C.3         1 KO1       0.0783
     34 C10        -8.4682    6.3406   69.9483 C.2         1 KO1      -0.0639
     35 C11        -8.5566    6.3983   71.2849 C.2         1 KO1      -0.1153
     36 H1        -11.8159    0.1859   69.3252 H           1 KO1       0.0649
     37 H2        -11.8617   -0.9780   71.3046 H           1 KO1       0.0643
     38 H3        -12.9662   -2.4106   69.6820 H           1 KO1       0.0584
     39 H4        -12.1378   -3.4053   70.8857 H           1 KO1       0.0584
     40 H5        -10.4483   -3.6955   69.3905 H           1 KO1       0.2095
     41 H6         -9.5420   -2.4392   70.7032 H           1 KO1       0.2100
     42 H7        -11.2526   -1.4265   67.6228 H           1 KO1       0.0647
     43 H8         -8.7296   -1.5194   68.8543 H           1 KO1       0.2100
     44 H9        -10.8825    0.8313   66.9485 H           1 KO1       0.0647
     45 H10        -8.9928    0.5240   65.5562 H           1 KO1       0.2100
     46 H11        -8.8264    2.0810   67.2289 H           1 KO1       0.0667
     47 H12        -7.6617    0.1631   68.8490 H           1 KO1       0.2100
     48 H13       -12.3827    4.6634   69.4045 H           1 KO1       0.0336
     49 H14       -10.8585    5.1231   70.1798 H           1 KO1       0.0336
     50 H15        -9.5969    4.1252   68.2653 H           1 KO1       0.0623
     51 H16       -10.7593    2.9076   66.4747 H           1 KO1       0.0646
     52 H17       -12.4798    2.1766   67.6741 H           1 KO1       0.2100
     53 H18       -10.4148    5.2425   65.9796 H           1 KO1       0.0649
     54 H19       -11.8306    5.6133   64.2637 H           1 KO1       0.0643
     55 H20       -13.9843    4.7981   65.8875 H           1 KO1       0.2100
     56 H21       -11.2997    3.0599   64.2827 H           1 KO1       0.0584
     57 H22       -12.5339    3.6685   63.1658 H           1 KO1       0.0584
     58 H23       -14.1196    2.9518   64.4875 H           1 KO1       0.2095
     59 H24        -9.5943    8.1086   69.6108 H           1 KO1       0.0740
     60 H25        -8.2710    7.7965   68.5037 H           1 KO1       0.0740
     61 H26        -7.9178    5.6208   69.5401 H           1 KO1       0.0695
     62 H27        -8.1058    5.7136   71.8445 H           1 KO1       0.0290
     63 H28        -9.0752    7.1168   71.7352 H           1 KO1       0.0290
@<TRIPOS>BOND
     1     2     1  ar
     2     2     3  ar
     3     4     2   1
     4     4     5   1
     5     4    15   1
     6    17     4   1
     7     5     6   1
     8     6     7   1
     9     6    11   1
    10     7     8   1
    11     7    10   1
    12     8     9   1
    13    11    12   1
    14    13    11   1
    15    13    14   1
    16    15    13   1
    17    15    16   1
    18    23    17   1
    19    18    19  ar
    20    18    20  ar
    21    21    18   1
    22    22    21   1
    23    21    27   1
    24    21    32   1
    25    22    23   1
    26    23    24   1
    27    24    25   1
    28    24    26   1
    29    26    27   1
    30    26    28   1
    31    28    29   1
    32    28    30   1
    33    30    31   1
    34    32    33   1
    35    33    34   1
    36    34    35   2
    37     6    36   1
    38     7    37   1
    39     8    38   1
    40     8    39   1
    41     9    40   1
    42    10    41   1
    43    11    42   1
    44    12    43   1
    45    13    44   1
    46    14    45   1
    47    15    46   1
    48    16    47   1
    49    22    48   1
    50    22    49   1
    51    23    50   1
    52    24    51   1
    53    25    52   1
    54    26    53   1
    55    28    54   1
    56    29    55   1
    57    30    56   1
    58    30    57   1
    59    31    58   1
    60    33    59   1
    61    33    60   1
    62    34    61   1
    63    35    62   1
    64    35    63   1
@<TRIPOS>SUBSTRUCTURE
     1  KO1      2

