@<TRIPOS>MOLECULE
2r23_ligand_008
    63    64
SMALL
GAST_HUCK
****
This file was generated by PARSER (from files_GN.cpp)

@<TRIPOS>ATOM
      1 OA1       -11.5380    1.5826   64.5550 O.co2       1 KO1      -0.5426
      2 C1        -10.4978    2.4434   64.6121 C.2         1 KO1       0.1068
      3 O1B       -10.5682    3.5847   63.8895 O.co2       1 KO1      -0.5426
      4 C2         -9.2696    2.0686   65.3611 C.3         1 KO1       0.2477
      5 O6         -8.3463    3.1981   65.3819 O.3         1 KO1      -0.3362
      6 C6         -7.0454    2.9748   65.9961 C.3         1 KO1       0.1171
      7 C7         -6.3199    4.3458   66.1206 C.3         1 KO1       0.1067
      8 C8         -7.1752    5.4242   66.8454 C.3         1 KO1       0.0727
      9 O8         -8.4554    5.6317   66.2439 O.3         1 KO1      -0.3924
     10 O7         -5.1352    4.2059   66.8992 O.3         1 KO1      -0.3869
     11 C5         -6.2799    1.8616   65.2167 C.3         1 KO1       0.1120
     12 O5         -5.9497    2.2786   63.8892 O.3         1 KO1      -0.3865
     13 C4         -7.1623    0.5839   65.1999 C.3         1 KO1       0.1139
     14 O4         -6.5324   -0.4561   64.4554 O.3         1 KO1      -0.3865
     15 C3         -8.5825    0.8673   64.6277 C.3         1 KO1       0.1429
     16 O3         -8.4775    1.1209   63.2172 O.3         1 KO1      -0.3844
     17 O2         -9.6730    1.6445   66.6873 O.3         1 KO1      -0.3388
     18 C1         -9.7853    2.0470   71.5526 C.2         1 KO1       0.1043
     19 O1A        -8.6893    1.3101   71.8392 O.co2       1 KO1      -0.5426
     20 O1B       -10.7612    2.1149   72.4872 O.co2       1 KO1      -0.5426
     21 C2         -9.8457    2.8485   70.3081 C.3         1 KO1       0.2225
     22 C3         -9.6516    1.8834   69.0921 C.3         1 KO1       0.0360
     23 C4         -9.9299    2.6012   67.7459 C.3         1 KO1       0.0937
     24 C5        -11.3492    3.2507   67.7697 C.3         1 KO1       0.1098
     25 O5        -12.3376    2.2263   67.8025 O.3         1 KO1      -0.3866
     26 C6        -11.4358    4.2185   68.9986 C.3         1 KO1       0.1170
     27 O6        -11.1505    3.4906   70.2176 O.3         1 KO1      -0.3380
     28 C7        -12.7607    5.0268   69.1422 C.3         1 KO1       0.1067
     29 O7        -12.6544    5.8588   70.3015 O.3         1 KO1      -0.3869
     30 C8        -14.0700    4.2041   69.2714 C.3         1 KO1       0.0727
     31 O8        -14.5612    3.8066   67.9960 O.3         1 KO1      -0.3924
     32 O2         -8.7550    3.8045   70.2747 O.3         1 KO1      -0.3323
     33 C9         -8.8180    5.0317   71.0394 C.3         1 KO1       0.0783
     34 C10        -8.6782    4.8390   72.4671 C.2         1 KO1      -0.0639
     35 C11        -7.7775    4.0179   73.0169 C.2         1 KO1      -0.1153
     36 H1         -7.1768    2.6009   67.0184 H           1 KO1       0.0649
     37 H2         -6.0446    4.7176   65.1311 H           1 KO1       0.0643
     38 H3         -6.6427    6.3812   66.8495 H           1 KO1       0.0584
     39 H4         -7.3358    5.1216   67.8801 H           1 KO1       0.0584
     40 H5         -8.3522    6.3846   65.6120 H           1 KO1       0.2095
     41 H6         -4.4910    3.7322   66.3333 H           1 KO1       0.2100
     42 H7         -5.3474    1.6232   65.7336 H           1 KO1       0.0647
     43 H8         -5.0953    2.7520   63.9737 H           1 KO1       0.2100
     44 H9         -7.2717    0.2112   66.2263 H           1 KO1       0.0647
     45 H10        -5.8058   -0.7713   65.0263 H           1 KO1       0.2100
     46 H11        -9.1938   -0.0333   64.7579 H           1 KO1       0.0667
     47 H12        -7.8457    0.4480   62.8825 H           1 KO1       0.2100
     48 H13       -10.3187    1.0215   69.1727 H           1 KO1       0.0336
     49 H14        -8.6228    1.5046   69.0760 H           1 KO1       0.0336
     50 H15        -9.1958    3.4155   67.6698 H           1 KO1       0.0623
     51 H16       -11.4960    3.8420   66.8623 H           1 KO1       0.0646
     52 H17       -12.3820    1.9301   68.7367 H           1 KO1       0.2100
     53 H18       -10.6529    4.9831   68.8656 H           1 KO1       0.0649
     54 H19       -12.8592    5.6977   68.2784 H           1 KO1       0.0643
     55 H20       -11.9511    6.5174   70.0956 H           1 KO1       0.2100
     56 H21       -14.8437    4.8143   69.7379 H           1 KO1       0.0584
     57 H22       -13.9071    3.3217   69.8938 H           1 KO1       0.0584
     58 H23       -15.3787    3.3022   68.1843 H           1 KO1       0.2095
     59 H24        -9.7375    5.5760   70.8133 H           1 KO1       0.0740
     60 H25        -7.9878    5.6560   70.6986 H           1 KO1       0.0740
     61 H26        -9.2499    5.3921   73.0779 H           1 KO1       0.0695
     62 H27        -7.6985    3.9425   74.0008 H           1 KO1       0.0290
     63 H28        -7.1954    3.4484   72.4474 H           1 KO1       0.0290
@<TRIPOS>BOND
     1     2     1  ar
     2     2     3  ar
     3     4     2   1
     4     4     5   1
     5     4    15   1
     6    17     4   1
     7     5     6   1
     8     6     7   1
     9     6    11   1
    10     7     8   1
    11     7    10   1
    12     8     9   1
    13    11    12   1
    14    13    11   1
    15    13    14   1
    16    15    13   1
    17    15    16   1
    18    23    17   1
    19    18    19  ar
    20    18    20  ar
    21    21    18   1
    22    22    21   1
    23    21    27   1
    24    21    32   1
    25    22    23   1
    26    23    24   1
    27    24    25   1
    28    24    26   1
    29    26    27   1
    30    26    28   1
    31    28    29   1
    32    28    30   1
    33    30    31   1
    34    32    33   1
    35    33    34   1
    36    34    35   2
    37     6    36   1
    38     7    37   1
    39     8    38   1
    40     8    39   1
    41     9    40   1
    42    10    41   1
    43    11    42   1
    44    12    43   1
    45    13    44   1
    46    14    45   1
    47    15    46   1
    48    16    47   1
    49    22    48   1
    50    22    49   1
    51    23    50   1
    52    24    51   1
    53    25    52   1
    54    26    53   1
    55    28    54   1
    56    29    55   1
    57    30    56   1
    58    30    57   1
    59    31    58   1
    60    33    59   1
    61    33    60   1
    62    34    61   1
    63    35    62   1
    64    35    63   1
@<TRIPOS>SUBSTRUCTURE
     1  KO1      2

