@<TRIPOS>MOLECULE
2r23_ligand_007
    63    64
SMALL
GAST_HUCK
****
This file was generated by PARSER (from files_GN.cpp)

@<TRIPOS>ATOM
      1 OA1       -11.5210    3.3172   65.4361 O.co2       1 KO1      -0.5426
      2 C1        -10.3873    2.9961   64.7694 C.2         1 KO1       0.1068
      3 O1B       -10.2150    3.6073   63.5755 O.co2       1 KO1      -0.5426
      4 C2         -9.2248    2.3609   65.4579 C.3         1 KO1       0.2477
      5 O6         -8.2328    3.4194   65.4577 O.3         1 KO1      -0.3362
      6 C6         -6.9557    3.1080   66.0648 C.3         1 KO1       0.1171
      7 C7         -6.0989    4.4111   66.1533 C.3         1 KO1       0.1067
      8 C8         -6.8805    5.6632   66.6656 C.3         1 KO1       0.0727
      9 O8         -8.1979    5.3692   67.1461 O.3         1 KO1      -0.3924
     10 O7         -4.9734    4.1773   67.0042 O.3         1 KO1      -0.3869
     11 C5         -6.2838    1.9307   65.2969 C.3         1 KO1       0.1120
     12 O5         -5.9164    2.3071   63.9671 O.3         1 KO1      -0.3865
     13 C4         -7.2558    0.7219   65.2515 C.3         1 KO1       0.1139
     14 O4         -6.7052   -0.3410   64.4817 O.3         1 KO1      -0.3865
     15 C3         -8.6543    1.1180   64.6827 C.3         1 KO1       0.1429
     16 O3         -8.5335    1.3782   63.2799 O.3         1 KO1      -0.3844
     17 O2         -9.5149    2.0480   66.8578 O.3         1 KO1      -0.3388
     18 C1        -13.2488    1.7553   70.0090 C.2         1 KO1       0.1043
     19 O1A       -12.5446    1.8205   71.1647 O.co2       1 KO1      -0.5426
     20 O1B       -14.4895    2.2983   70.0017 O.co2       1 KO1      -0.5426
     21 C2        -12.6638    1.0940   68.8157 C.3         1 KO1       0.2225
     22 C3        -11.4598    1.9572   68.3099 C.3         1 KO1       0.0360
     23 C4        -10.6218    1.1964   67.2472 C.3         1 KO1       0.0937
     24 C5        -10.1562   -0.1706   67.8431 C.3         1 KO1       0.1098
     25 O5         -9.2633    0.0346   68.9387 O.3         1 KO1      -0.3866
     26 C6        -11.4202   -0.9764   68.2862 C.3         1 KO1       0.1170
     27 O6        -12.2006   -0.2164   69.2394 O.3         1 KO1      -0.3380
     28 C7        -11.1469   -2.4052   68.8534 C.3         1 KO1       0.1067
     29 O7        -12.2406   -3.2669   68.5263 O.3         1 KO1      -0.3869
     30 C8        -10.9078   -2.5098   70.3852 C.3         1 KO1       0.0727
     31 O8        -11.9552   -1.9264   71.1574 O.3         1 KO1      -0.3924
     32 O2        -13.6497    1.0318   67.7504 O.3         1 KO1      -0.3323
     33 C9        -14.5020   -0.1399   67.6779 C.3         1 KO1       0.0783
     34 C10       -15.8243    0.2246   67.2039 C.2         1 KO1      -0.0639
     35 C11       -16.0594    0.7057   65.9751 C.2         1 KO1      -0.1153
     36 H1         -7.1198    2.7848   67.1002 H           1 KO1       0.0649
     37 H2         -5.7088    4.6569   65.1565 H           1 KO1       0.0643
     38 H3         -6.9700    6.3943   65.8455 H           1 KO1       0.0584
     39 H4         -6.3252    6.1528   67.4786 H           1 KO1       0.0584
     40 H5         -8.5686    6.2385   67.3919 H           1 KO1       0.2095
     41 H6         -4.2964    3.7849   66.4207 H           1 KO1       0.2100
     42 H7         -5.3833    1.6221   65.8272 H           1 KO1       0.0647
     43 H8         -5.0768    2.8001   64.0589 H           1 KO1       0.2100
     44 H9         -7.3897    0.3427   66.2658 H           1 KO1       0.0647
     45 H10        -5.9042   -0.6270   64.9651 H           1 KO1       0.2100
     46 H11        -9.3471    0.2758   64.7887 H           1 KO1       0.0667
     47 H12        -7.9781    0.6495   62.9348 H           1 KO1       0.2100
     48 H13       -10.7968    2.2164   69.1436 H           1 KO1       0.0336
     49 H14       -11.8268    2.8947   67.8835 H           1 KO1       0.0336
     50 H15       -11.2676    0.9960   66.3872 H           1 KO1       0.0623
     51 H16        -9.6283   -0.7472   67.0787 H           1 KO1       0.0646
     52 H17        -8.4665    0.4528   68.5534 H           1 KO1       0.2100
     53 H18       -12.0238   -1.1298   67.3840 H           1 KO1       0.0649
     54 H19       -10.2644   -2.8183   68.3517 H           1 KO1       0.0643
     55 H20       -12.2638   -3.2844   67.5448 H           1 KO1       0.2100
     56 H21        -9.9569   -2.0507   70.6653 H           1 KO1       0.0584
     57 H22       -10.8575   -3.5632   70.6656 H           1 KO1       0.0584
     58 H23       -11.8838   -0.9574   71.0076 H           1 KO1       0.2095
     59 H24       -14.6092   -0.6369   68.6535 H           1 KO1       0.0740
     60 H25       -14.0584   -0.8648   66.9846 H           1 KO1       0.0740
     61 H26       -16.6003    0.1030   67.8144 H           1 KO1       0.0695
     62 H27       -16.9850    0.9172   65.6921 H           1 KO1       0.0290
     63 H28       -15.3153    0.8515   65.3281 H           1 KO1       0.0290
@<TRIPOS>BOND
     1     2     1  ar
     2     2     3  ar
     3     4     2   1
     4     4     5   1
     5     4    15   1
     6    17     4   1
     7     5     6   1
     8     6     7   1
     9     6    11   1
    10     7     8   1
    11     7    10   1
    12     8     9   1
    13    11    12   1
    14    13    11   1
    15    13    14   1
    16    15    13   1
    17    15    16   1
    18    23    17   1
    19    18    19  ar
    20    18    20  ar
    21    21    18   1
    22    22    21   1
    23    21    27   1
    24    21    32   1
    25    22    23   1
    26    23    24   1
    27    24    25   1
    28    24    26   1
    29    26    27   1
    30    26    28   1
    31    28    29   1
    32    28    30   1
    33    30    31   1
    34    32    33   1
    35    33    34   1
    36    34    35   2
    37     6    36   1
    38     7    37   1
    39     8    38   1
    40     8    39   1
    41     9    40   1
    42    10    41   1
    43    11    42   1
    44    12    43   1
    45    13    44   1
    46    14    45   1
    47    15    46   1
    48    16    47   1
    49    22    48   1
    50    22    49   1
    51    23    50   1
    52    24    51   1
    53    25    52   1
    54    26    53   1
    55    28    54   1
    56    29    55   1
    57    30    56   1
    58    30    57   1
    59    31    58   1
    60    33    59   1
    61    33    60   1
    62    34    61   1
    63    35    62   1
    64    35    63   1
@<TRIPOS>SUBSTRUCTURE
     1  KO1      2

