@<TRIPOS>MOLECULE
2r23_ligand_005
    63    64
SMALL
GAST_HUCK
****
This file was generated by PARSER (from files_GN.cpp)

@<TRIPOS>ATOM
      1 OA1        -6.7081    6.0172   70.1722 O.co2       1 KO1      -0.5426
      2 C1         -6.8809    5.5058   68.9286 C.2         1 KO1       0.1068
      3 O1B        -7.2221    6.3666   67.9462 O.co2       1 KO1      -0.5426
      4 C2         -6.5201    4.1094   68.6052 C.3         1 KO1       0.2477
      5 O6         -6.6783    3.2579   69.7688 O.3         1 KO1      -0.3362
      6 C6         -6.2514    1.8789   69.6351 C.3         1 KO1       0.1171
      7 C7         -6.7033    1.1053   70.9138 C.3         1 KO1       0.1067
      8 C8         -6.6811   -0.4437   70.7593 C.3         1 KO1       0.0727
      9 O8         -7.9324   -0.9221   70.2535 O.3         1 KO1      -0.3924
     10 O7         -5.9590    1.4830   72.0749 O.3         1 KO1      -0.3869
     11 C5         -4.7254    1.8005   69.2784 C.3         1 KO1       0.1120
     12 O5         -3.8997    2.2818   70.3438 O.3         1 KO1      -0.3865
     13 C4         -4.4846    2.6393   67.9938 C.3         1 KO1       0.1139
     14 O4         -3.1012    2.6428   67.6423 O.3         1 KO1      -0.3865
     15 C3         -5.0154    4.0879   68.1554 C.3         1 KO1       0.1429
     16 O3         -4.1985    4.7818   69.1030 O.3         1 KO1      -0.3844
     17 O2         -7.3343    3.6687   67.4843 O.3         1 KO1      -0.3388
     18 C1        -10.6523    0.1119   67.3766 C.2         1 KO1       0.1043
     19 O1A        -9.7946   -0.4656   66.5009 O.co2       1 KO1      -0.5426
     20 O1B       -11.8104   -0.5714   67.5262 O.co2       1 KO1      -0.5426
     21 C2        -10.5914    1.5944   67.5798 C.3         1 KO1       0.2225
     22 C3         -9.0954    1.9928   67.8389 C.3         1 KO1       0.0360
     23 C4         -8.7756    3.4919   67.5901 C.3         1 KO1       0.0937
     24 C5         -9.4261    3.9832   66.2603 C.3         1 KO1       0.1098
     25 O5         -8.7320    3.4051   65.1480 O.3         1 KO1      -0.3866
     26 C6        -10.9399    3.6080   66.2172 C.3         1 KO1       0.1170
     27 O6        -11.0699    2.1735   66.3419 O.3         1 KO1      -0.3380
     28 C7        -11.7505    4.0611   64.9557 C.3         1 KO1       0.1067
     29 O7        -11.0700    3.7420   63.7482 O.3         1 KO1      -0.3869
     30 C8        -12.1621    5.5539   64.9347 C.3         1 KO1       0.0727
     31 O8        -11.2545    6.3997   65.6344 O.3         1 KO1      -0.3924
     32 O2        -11.3320    2.1246   68.7217 O.3         1 KO1      -0.3323
     33 C9        -12.6736    1.7513   69.1058 C.3         1 KO1       0.0783
     34 C10       -13.6399    1.6777   68.0234 C.2         1 KO1      -0.0639
     35 C11       -14.1774    2.7542   67.4390 C.2         1 KO1      -0.1153
     36 H1         -6.8034    1.4248   68.7984 H           1 KO1       0.0649
     37 H2         -7.7438    1.3859   71.1241 H           1 KO1       0.0643
     38 H3         -6.5092   -0.9064   71.7388 H           1 KO1       0.0584
     39 H4         -5.8733   -0.7536   70.0896 H           1 KO1       0.0584
     40 H5         -7.8637   -1.9011   70.2745 H           1 KO1       0.2095
     41 H6         -5.0318    1.2126   71.8989 H           1 KO1       0.2100
     42 H7         -4.4431    0.7528   69.0880 H           1 KO1       0.0647
     43 H8         -3.0854    1.7236   70.3198 H           1 KO1       0.2100
     44 H9         -5.0181    2.1563   67.1690 H           1 KO1       0.0647
     45 H10        -3.0767    2.9414   66.7076 H           1 KO1       0.2100
     46 H11        -4.9130    4.5986   67.1937 H           1 KO1       0.0667
     47 H12        -3.4483    4.1787   69.3062 H           1 KO1       0.2100
     48 H13        -8.4217    1.4269   67.1890 H           1 KO1       0.0336
     49 H14        -8.8367    1.7392   68.8748 H           1 KO1       0.0336
     50 H15        -9.2003    4.0749   68.4114 H           1 KO1       0.0623
     51 H16        -9.3264    5.0690   66.2012 H           1 KO1       0.0646
     52 H17        -7.8424    3.8271   65.1376 H           1 KO1       0.2100
     53 H18       -11.4288    4.0761   67.0790 H           1 KO1       0.0649
     54 H19       -12.6856    3.5028   64.9304 H           1 KO1       0.0643
     55 H20       -11.0758    2.7609   63.7096 H           1 KO1       0.2100
     56 H21       -13.1496    5.6661   65.3941 H           1 KO1       0.0584
     57 H22       -12.2378    5.9010   63.8987 H           1 KO1       0.0584
     58 H23       -10.5723    6.6733   64.9865 H           1 KO1       0.2095
     59 H24       -13.0134    2.4944   69.8299 H           1 KO1       0.0740
     60 H25       -12.6328    0.8061   69.6443 H           1 KO1       0.0740
     61 H26       -13.9490    0.7776   67.7300 H           1 KO1       0.0695
     62 H27       -14.8471    2.6440   66.7122 H           1 KO1       0.0290
     63 H28       -13.9409    3.6753   67.7326 H           1 KO1       0.0290
@<TRIPOS>BOND
     1     2     1  ar
     2     2     3  ar
     3     4     2   1
     4     4     5   1
     5     4    15   1
     6    17     4   1
     7     5     6   1
     8     6     7   1
     9     6    11   1
    10     7     8   1
    11     7    10   1
    12     8     9   1
    13    11    12   1
    14    13    11   1
    15    13    14   1
    16    15    13   1
    17    15    16   1
    18    23    17   1
    19    18    19  ar
    20    18    20  ar
    21    21    18   1
    22    22    21   1
    23    21    27   1
    24    21    32   1
    25    22    23   1
    26    23    24   1
    27    24    25   1
    28    24    26   1
    29    26    27   1
    30    26    28   1
    31    28    29   1
    32    28    30   1
    33    30    31   1
    34    32    33   1
    35    33    34   1
    36    34    35   2
    37     6    36   1
    38     7    37   1
    39     8    38   1
    40     8    39   1
    41     9    40   1
    42    10    41   1
    43    11    42   1
    44    12    43   1
    45    13    44   1
    46    14    45   1
    47    15    46   1
    48    16    47   1
    49    22    48   1
    50    22    49   1
    51    23    50   1
    52    24    51   1
    53    25    52   1
    54    26    53   1
    55    28    54   1
    56    29    55   1
    57    30    56   1
    58    30    57   1
    59    31    58   1
    60    33    59   1
    61    33    60   1
    62    34    61   1
    63    35    62   1
    64    35    63   1
@<TRIPOS>SUBSTRUCTURE
     1  KO1      2

