@<TRIPOS>MOLECULE
2r23_ligand_024
    63    64
SMALL
GAST_HUCK
****
This file was generated by PARSER (from files_GN.cpp)

@<TRIPOS>ATOM
      1 OA1       -10.2771    1.4728   72.3416 O.co2       1 KO1      -0.5426
      2 C1         -9.5600    1.2110   71.2228 C.2         1 KO1       0.1068
      3 O1B        -8.2168    1.3120   71.3085 O.co2       1 KO1      -0.5426
      4 C2        -10.2067    0.7367   69.9704 C.3         1 KO1       0.2477
      5 O6        -11.5976    0.4586   70.2717 O.3         1 KO1      -0.3362
      6 C6        -12.4523   -0.0102   69.1943 C.3         1 KO1       0.1171
      7 C7        -13.9176   -0.1312   69.7131 C.3         1 KO1       0.1067
      8 C8        -14.5102    1.2171   70.1977 C.3         1 KO1       0.0727
      9 O8        -14.5180    2.2074   69.1710 O.3         1 KO1      -0.3924
     10 O7        -14.7707   -0.6751   68.7067 O.3         1 KO1      -0.3869
     11 C5        -11.8959   -1.3391   68.5913 C.3         1 KO1       0.1120
     12 O5        -12.1662   -2.4706   69.4240 O.3         1 KO1      -0.3865
     13 C4        -10.3792   -1.2001   68.2810 C.3         1 KO1       0.1139
     14 O4         -9.8114   -2.4415   67.8732 O.3         1 KO1      -0.3865
     15 C3         -9.5603   -0.5975   69.4567 C.3         1 KO1       0.1429
     16 O3         -9.4054   -1.5233   70.5359 O.3         1 KO1      -0.3844
     17 O2        -10.2097    1.8161   68.9996 O.3         1 KO1      -0.3388
     18 C1         -7.1552    5.6942   68.6220 C.2         1 KO1       0.1043
     19 O1A        -7.3372    6.7261   67.7666 O.co2       1 KO1      -0.5426
     20 O1B        -6.7844    5.9802   69.8953 O.co2       1 KO1      -0.5426
     21 C2         -7.3536    4.2869   68.1751 C.3         1 KO1       0.2225
     22 C3         -8.5768    3.6968   68.9601 C.3         1 KO1       0.0360
     23 C4         -9.0126    2.3267   68.3679 C.3         1 KO1       0.0937
     24 C5         -9.3086    2.4706   66.8445 C.3         1 KO1       0.1098
     25 O5        -10.4399    3.3243   66.6339 O.3         1 KO1      -0.3866
     26 C6         -8.0370    3.0232   66.1397 C.3         1 KO1       0.1170
     27 O6         -7.6431    4.2805   66.7438 O.3         1 KO1      -0.3380
     28 C7         -8.1369    3.1649   64.5846 C.3         1 KO1       0.1067
     29 O7         -6.8367    2.9933   64.0172 O.3         1 KO1      -0.3869
     30 C8         -8.6918    4.4975   64.0069 C.3         1 KO1       0.0727
     31 O8        -10.1122    4.5446   63.9741 O.3         1 KO1      -0.3924
     32 O2         -6.1507    3.5312   68.4962 O.3         1 KO1      -0.3323
     33 C9         -5.0148    3.6671   67.6070 C.3         1 KO1       0.0783
     34 C10        -3.7769    3.4872   68.3396 C.2         1 KO1      -0.0639
     35 C11        -2.6063    3.9534   67.8692 C.2         1 KO1      -0.1153
     36 H1        -12.4526    0.7393   68.3958 H           1 KO1       0.0649
     37 H2        -13.9359   -0.8239   70.5570 H           1 KO1       0.0643
     38 H3        -13.9287    1.5987   71.0378 H           1 KO1       0.0584
     39 H4        -15.5361    1.0647   70.5413 H           1 KO1       0.0584
     40 H5        -15.1973    1.9138   68.5271 H           1 KO1       0.2095
     41 H6        -14.6130   -0.1323   67.9060 H           1 KO1       0.2100
     42 H7        -12.4073   -1.5298   67.6434 H           1 KO1       0.0647
     43 H8        -12.0151   -2.1782   70.3447 H           1 KO1       0.2100
     44 H9        -10.2804   -0.5293   67.4219 H           1 KO1       0.0647
     45 H10        -9.8971   -3.0398   68.6463 H           1 KO1       0.2100
     46 H11        -8.5536   -0.4063   69.0923 H           1 KO1       0.0667
     47 H12       -10.3067   -1.8275   70.7632 H           1 KO1       0.2100
     48 H13        -9.4351    4.3784   68.9174 H           1 KO1       0.0336
     49 H14        -8.3197    3.5690   70.0164 H           1 KO1       0.0336
     50 H15        -8.1727    1.6359   68.4932 H           1 KO1       0.0623
     51 H16        -9.5422    1.4850   66.4255 H           1 KO1       0.0646
     52 H17       -11.1863    2.8717   67.0783 H           1 KO1       0.2100
     53 H18        -7.2491    2.2724   66.3223 H           1 KO1       0.0649
     54 H19        -8.7487    2.3478   64.1826 H           1 KO1       0.0643
     55 H20        -6.2265    3.5034   64.5953 H           1 KO1       0.2100
     56 H21        -8.3601    4.5985   62.9675 H           1 KO1       0.0584
     57 H22        -8.3060    5.3558   64.5665 H           1 KO1       0.0584
     58 H23       -10.3914    4.6151   64.9130 H           1 KO1       0.2095
     59 H24        -4.9969    4.6533   67.1283 H           1 KO1       0.0740
     60 H25        -5.0843    2.8937   66.8300 H           1 KO1       0.0740
     61 H26        -3.7828    3.0054   69.2125 H           1 KO1       0.0695
     62 H27        -1.7758    3.8358   68.3989 H           1 KO1       0.0290
     63 H28        -2.5572    4.4640   67.0169 H           1 KO1       0.0290
@<TRIPOS>BOND
     1     2     1  ar
     2     2     3  ar
     3     4     2   1
     4     4     5   1
     5     4    15   1
     6    17     4   1
     7     5     6   1
     8     6     7   1
     9     6    11   1
    10     7     8   1
    11     7    10   1
    12     8     9   1
    13    11    12   1
    14    13    11   1
    15    13    14   1
    16    15    13   1
    17    15    16   1
    18    23    17   1
    19    18    19  ar
    20    18    20  ar
    21    21    18   1
    22    22    21   1
    23    21    27   1
    24    21    32   1
    25    22    23   1
    26    23    24   1
    27    24    25   1
    28    24    26   1
    29    26    27   1
    30    26    28   1
    31    28    29   1
    32    28    30   1
    33    30    31   1
    34    32    33   1
    35    33    34   1
    36    34    35   2
    37     6    36   1
    38     7    37   1
    39     8    38   1
    40     8    39   1
    41     9    40   1
    42    10    41   1
    43    11    42   1
    44    12    43   1
    45    13    44   1
    46    14    45   1
    47    15    46   1
    48    16    47   1
    49    22    48   1
    50    22    49   1
    51    23    50   1
    52    24    51   1
    53    25    52   1
    54    26    53   1
    55    28    54   1
    56    29    55   1
    57    30    56   1
    58    30    57   1
    59    31    58   1
    60    33    59   1
    61    33    60   1
    62    34    61   1
    63    35    62   1
    64    35    63   1
@<TRIPOS>SUBSTRUCTURE
     1  KO1      2

