@<TRIPOS>MOLECULE
2r23_ligand_006
    63    64
SMALL
GAST_HUCK
****
This file was generated by PARSER (from files_GN.cpp)

@<TRIPOS>ATOM
      1 OA1        -8.2084    4.5815   71.3585 O.co2       1 KO1      -0.5426
      2 C1         -8.1728    5.4698   70.3384 C.2         1 KO1       0.1068
      3 O1B        -7.1091    6.3128   70.2797 O.co2       1 KO1      -0.5426
      4 C2         -9.1425    5.4295   69.2165 C.3         1 KO1       0.2477
      5 O6         -9.4105    6.8223   68.9270 O.3         1 KO1      -0.3362
      6 C6        -10.2697    7.1228   67.8002 C.3         1 KO1       0.1171
      7 C7        -10.2653    8.6660   67.6196 C.3         1 KO1       0.1067
      8 C8         -8.8772    9.3026   67.9266 C.3         1 KO1       0.0727
      9 O8         -7.9691    9.2073   66.8346 O.3         1 KO1      -0.3924
     10 O7        -10.6697    9.0195   66.2968 O.3         1 KO1      -0.3869
     11 C5        -11.6867    6.4946   67.9977 C.3         1 KO1       0.1120
     12 O5        -12.5060    7.2492   68.8930 O.3         1 KO1      -0.3865
     13 C4        -11.5662    5.0039   68.4392 C.3         1 KO1       0.1139
     14 O4        -12.8415    4.4821   68.8128 O.3         1 KO1      -0.3865
     15 C3        -10.5261    4.7813   69.5837 C.3         1 KO1       0.1429
     16 O3        -11.0387    5.3092   70.8127 O.3         1 KO1      -0.3844
     17 O2         -8.5088    4.8628   68.0381 O.3         1 KO1      -0.3388
     18 C1         -5.2991    1.2091   69.2978 C.2         1 KO1       0.1043
     19 O1A        -4.6577    2.0829   70.1137 O.co2       1 KO1      -0.5426
     20 O1B        -4.8095   -0.0503   69.2287 O.co2       1 KO1      -0.5426
     21 C2         -6.5303    1.5630   68.5282 C.3         1 KO1       0.2225
     22 C3         -6.9724    3.0431   68.8115 C.3         1 KO1       0.0360
     23 C4         -8.1599    3.4562   67.8931 C.3         1 KO1       0.0937
     24 C5         -7.7843    3.1943   66.4014 C.3         1 KO1       0.1098
     25 O5         -6.7705    4.1217   66.0098 O.3         1 KO1      -0.3866
     26 C6         -7.3019    1.7272   66.2005 C.3         1 KO1       0.1170
     27 O6         -6.2046    1.4384   67.1173 O.3         1 KO1      -0.3380
     28 C7         -6.8251    1.3243   64.7616 C.3         1 KO1       0.1067
     29 O7         -6.1285    2.3671   64.0694 O.3         1 KO1      -0.3869
     30 C8         -7.9671    0.8169   63.8527 C.3         1 KO1       0.0727
     31 O8         -8.8038    1.8747   63.3766 O.3         1 KO1      -0.3924
     32 O2         -7.6566    0.7203   68.9258 O.3         1 KO1      -0.3323
     33 C9         -7.6208   -0.7033   68.6404 C.3         1 KO1       0.0783
     34 C10        -8.9285   -1.2391   68.3302 C.2         1 KO1      -0.0639
     35 C11        -9.9702   -0.5283   67.8467 C.2         1 KO1      -0.1153
     36 H1         -9.8448    6.6871   66.8898 H           1 KO1       0.0649
     37 H2        -10.9933    9.0971   68.3136 H           1 KO1       0.0643
     38 H3         -8.4280    8.8298   68.8009 H           1 KO1       0.0584
     39 H4         -9.0167   10.3586   68.1596 H           1 KO1       0.0584
     40 H5         -7.8746    8.2432   66.6506 H           1 KO1       0.2095
     41 H6        -10.0721    8.5097   65.7012 H           1 KO1       0.2100
     42 H7        -12.2127    6.5146   67.0371 H           1 KO1       0.0647
     43 H8        -11.9587    7.4148   69.6874 H           1 KO1       0.2100
     44 H9        -11.2369    4.4214   67.5752 H           1 KO1       0.0647
     45 H10       -13.1236    5.0127   69.5911 H           1 KO1       0.2100
     46 H11       -10.3976    3.7111   69.7378 H           1 KO1       0.0667
     47 H12       -10.6424    6.1975   70.9125 H           1 KO1       0.2100
     48 H13        -6.1334    3.7213   68.6264 H           1 KO1       0.0336
     49 H14        -7.2521    3.1193   69.8640 H           1 KO1       0.0336
     50 H15        -9.0444    2.8383   68.1382 H           1 KO1       0.0623
     51 H16        -8.6798    3.3712   65.7934 H           1 KO1       0.0646
     52 H17        -7.2242    4.9969   65.9577 H           1 KO1       0.2100
     53 H18        -8.1485    1.0580   66.4527 H           1 KO1       0.0649
     54 H19        -6.1185    0.4907   64.8655 H           1 KO1       0.0643
     55 H20        -5.2870    2.4947   64.5618 H           1 KO1       0.2100
     56 H21        -8.5790    0.0723   64.3875 H           1 KO1       0.0584
     57 H22        -7.5277    0.3180   62.9753 H           1 KO1       0.0584
     58 H23        -9.3417    1.4513   62.6602 H           1 KO1       0.2095
     59 H24        -7.2458   -1.2121   69.5313 H           1 KO1       0.0740
     60 H25        -6.9523   -0.9304   67.8019 H           1 KO1       0.0740
     61 H26        -9.0518   -2.2232   68.4364 H           1 KO1       0.0695
     62 H27       -10.8318   -0.9853   67.6744 H           1 KO1       0.0290
     63 H28        -9.8887    0.4453   67.6973 H           1 KO1       0.0290
@<TRIPOS>BOND
     1     2     1  ar
     2     2     3  ar
     3     4     2   1
     4     4     5   1
     5     4    15   1
     6    17     4   1
     7     5     6   1
     8     6     7   1
     9     6    11   1
    10     7     8   1
    11     7    10   1
    12     8     9   1
    13    11    12   1
    14    13    11   1
    15    13    14   1
    16    15    13   1
    17    15    16   1
    18    23    17   1
    19    18    19  ar
    20    18    20  ar
    21    21    18   1
    22    22    21   1
    23    21    27   1
    24    21    32   1
    25    22    23   1
    26    23    24   1
    27    24    25   1
    28    24    26   1
    29    26    27   1
    30    26    28   1
    31    28    29   1
    32    28    30   1
    33    30    31   1
    34    32    33   1
    35    33    34   1
    36    34    35   2
    37     6    36   1
    38     7    37   1
    39     8    38   1
    40     8    39   1
    41     9    40   1
    42    10    41   1
    43    11    42   1
    44    12    43   1
    45    13    44   1
    46    14    45   1
    47    15    46   1
    48    16    47   1
    49    22    48   1
    50    22    49   1
    51    23    50   1
    52    24    51   1
    53    25    52   1
    54    26    53   1
    55    28    54   1
    56    29    55   1
    57    30    56   1
    58    30    57   1
    59    31    58   1
    60    33    59   1
    61    33    60   1
    62    34    61   1
    63    35    62   1
    64    35    63   1
@<TRIPOS>SUBSTRUCTURE
     1  KO1      2

