@<TRIPOS>MOLECULE
2v00_ligand_025
    29    30
SMALL
GAST_HUCK
****
This file was generated by PARSER (from files_GN.cpp)

@<TRIPOS>ATOM
      1 N1        -11.3247    1.0035   10.0841 N.am        1 V15      -0.1828
      2 C2        -11.3865   -0.3393   10.2835 C.2         1 V15       0.2430
      3 C3        -10.2551    1.5557    9.5181 C.2         1 V15       0.1868
      4 C4         -9.2054    0.7802    9.1215 C.2         1 V15      -0.0134
      5 C5         -9.2373   -0.5594    9.3260 C.2         1 V15      -0.0129
      6 N6        -10.3322   -1.1074    9.8969 N.2         1 V15      -0.2880
      7 C8         -5.8120    0.6837    9.6450 C.ar        1 V15      -0.0601
      8 C9         -5.4203    1.9590   10.0949 C.ar        1 V15      -0.0686
      9 C10        -5.6513    2.3343   11.4275 C.ar        1 V15      -0.0687
     10 C11        -6.2867    1.4428   12.3107 C.ar        1 V15      -0.0686
     11 C12        -6.6907    0.1742   11.8566 C.ar        1 V15      -0.0601
     12 N14       -12.4612   -0.9077   10.8438 N.pl3       1 V15      -0.2764
     13 C15        -8.1259   -1.4317    8.9549 C.3         1 V15       0.0000
     14 C7         -6.4688   -0.2196   10.5137 C.ar        1 V15      -0.0405
     15 C16        -6.9782   -1.5248   10.0032 C.3         1 V15      -0.0061
     16 O15       -10.2330    2.7657    9.3546 O.2         1 V15      -0.4228
     17 H1        -12.0725    1.5658   10.3504 H           1 V15       0.2550
     18 H2         -8.4237    1.2076    8.6889 H           1 V15       0.0229
     19 H3         -5.6749    0.4468    8.6585 H           1 V15       0.0557
     20 H4         -4.9818    2.6192    9.4483 H           1 V15       0.0599
     21 H5         -5.3547    3.2530   11.7515 H           1 V15       0.0559
     22 H6         -6.4544    1.7136   13.2851 H           1 V15       0.0599
     23 H7         -7.1837   -0.4485   12.5065 H           1 V15       0.0557
     24 H8        -12.4813   -1.8709   10.9601 H           1 V15       0.1918
     25 H9        -13.2143   -0.3633   11.1307 H           1 V15       0.1918
     26 H10        -7.7219   -1.1024    7.9954 H           1 V15       0.0499
     27 H11        -8.4988   -2.4495    8.7904 H           1 V15       0.0499
     28 H12        -6.1407   -2.0623    9.5534 H           1 V15       0.0454
     29 H13        -7.3358   -2.1385   10.8338 H           1 V15       0.0454
@<TRIPOS>BOND
     1     2     1  am
     2     3     1  am
     3     6     2   2
     4     2    12   1
     5     4     3   1
     6     3    16   2
     7     5     4   2
     8     5     6   1
     9    13     5   1
    10     7     8  ar
    11    14     7  ar
    12     8     9  ar
    13    10     9  ar
    14    11    10  ar
    15    14    11  ar
    16    15    13   1
    17    14    15   1
    18     1    17   1
    19     4    18   1
    20     7    19   1
    21     8    20   1
    22     9    21   1
    23    10    22   1
    24    11    23   1
    25    12    24   1
    26    12    25   1
    27    13    26   1
    28    13    27   1
    29    15    28   1
    30    15    29   1
@<TRIPOS>SUBSTRUCTURE
     1  V15      2

