@<TRIPOS>MOLECULE
2v00_ligand_037
    29    30
SMALL
GAST_HUCK
****
This file was generated by PARSER (from files_GN.cpp)

@<TRIPOS>ATOM
      1 N1          0.0299   -0.3483    7.3066 N.am        1 V15      -0.1828
      2 C2         -0.3576    0.5406    8.2571 C.2         1 V15       0.2430
      3 C3         -0.7581   -0.6365    6.2742 C.2         1 V15       0.1868
      4 C4         -1.9662   -0.0139    6.1292 C.2         1 V15      -0.0134
      5 C5         -2.3790    0.8664    7.0708 C.2         1 V15      -0.0129
      6 N6         -1.5679    1.1387    8.1147 N.2         1 V15      -0.2880
      7 C8         -4.0296    2.9396    9.8806 C.ar        1 V15      -0.0601
      8 C9         -3.5052    3.3731   11.1124 C.ar        1 V15      -0.0686
      9 C10        -3.0216    2.4335   12.0401 C.ar        1 V15      -0.0687
     10 C11        -3.0674    1.0608   11.7372 C.ar        1 V15      -0.0686
     11 C12        -3.6030    0.6275   10.5098 C.ar        1 V15      -0.0601
     12 N14         0.4196    0.8029    9.3188 N.pl3       1 V15      -0.2764
     13 C15        -3.6880    1.5133    7.0347 C.3         1 V15       0.0000
     14 C7         -4.0864    1.5622    9.5618 C.ar        1 V15      -0.0405
     15 C16        -4.5989    1.1207    8.2345 C.3         1 V15      -0.0061
     16 O15        -0.4225   -1.5453    5.5284 O.2         1 V15      -0.4228
     17 H1          0.8563   -0.8404    7.4241 H           1 V15       0.2550
     18 H2         -2.5462   -0.2393    5.3558 H           1 V15       0.0229
     19 H3         -4.3614    3.6372    9.2111 H           1 V15       0.0557
     20 H4         -3.4670    4.3718   11.3308 H           1 V15       0.0599
     21 H5         -2.6279    2.7496   12.9289 H           1 V15       0.0559
     22 H6         -2.7042    0.3769   12.4061 H           1 V15       0.0599
     23 H7         -3.6144   -0.3739   10.3021 H           1 V15       0.0557
     24 H8          0.1247    1.4361    9.9926 H           1 V15       0.1918
     25 H9          1.2768    0.3602    9.4149 H           1 V15       0.1918
     26 H10        -4.2240    1.2524    6.1157 H           1 V15       0.0499
     27 H11        -3.5469    2.5969    7.0102 H           1 V15       0.0499
     28 H12        -4.7400    0.0364    8.2148 H           1 V15       0.0454
     29 H13        -5.5869    1.5638    8.0863 H           1 V15       0.0454
@<TRIPOS>BOND
     1     2     1  am
     2     3     1  am
     3     6     2   2
     4     2    12   1
     5     4     3   1
     6     3    16   2
     7     5     4   2
     8     5     6   1
     9    13     5   1
    10     7     8  ar
    11    14     7  ar
    12     8     9  ar
    13    10     9  ar
    14    11    10  ar
    15    14    11  ar
    16    15    13   1
    17    14    15   1
    18     1    17   1
    19     4    18   1
    20     7    19   1
    21     8    20   1
    22     9    21   1
    23    10    22   1
    24    11    23   1
    25    12    24   1
    26    12    25   1
    27    13    26   1
    28    13    27   1
    29    15    28   1
    30    15    29   1
@<TRIPOS>SUBSTRUCTURE
     1  V15      2

