@<TRIPOS>MOLECULE
2v00_ligand_001
    29    30
SMALL
GAST_HUCK
****
This file was generated by PARSER (from files_GN.cpp)

@<TRIPOS>ATOM
      1 N1          2.2273    7.5426    9.4065 N.am        1 V15      -0.1828
      2 C2          2.4097    6.4278   10.1596 C.2         1 V15       0.2430
      3 C3          1.8675    8.6922    9.9758 C.2         1 V15       0.1868
      4 C4          1.6758    8.7712   11.3267 C.2         1 V15      -0.0134
      5 C5          1.9024    7.6795   12.0983 C.2         1 V15      -0.0129
      6 N6          2.2409    6.5163   11.5029 N.2         1 V15      -0.2880
      7 C8          4.9683    7.6775   14.4147 C.ar        1 V15      -0.0601
      8 C9          6.0034    7.0418   15.1244 C.ar        1 V15      -0.0686
      9 C10         5.8389    6.7292   16.4861 C.ar        1 V15      -0.0687
     10 C11         4.6411    7.0606   17.1403 C.ar        1 V15      -0.0686
     11 C12         3.6034    7.6971   16.4336 C.ar        1 V15      -0.0601
     12 N14         2.7574    5.2698    9.5719 N.pl3       1 V15      -0.2764
     13 C15         1.7140    7.7209   13.5481 C.3         1 V15       0.0000
     14 C7          3.7562    8.0178   15.0625 C.ar        1 V15      -0.0405
     15 C16         2.6582    8.6995   14.3176 C.3         1 V15      -0.0061
     16 O15         1.7202    9.6720    9.2610 O.2         1 V15      -0.4228
     17 H1          2.3581    7.4874    8.4476 H           1 V15       0.2550
     18 H2          1.3760    9.6283   11.7299 H           1 V15       0.0229
     19 H3          5.1042    7.8978   13.4235 H           1 V15       0.0557
     20 H4          6.8770    6.7995   14.6496 H           1 V15       0.0599
     21 H5          6.5913    6.2623   16.9996 H           1 V15       0.0559
     22 H6          4.5153    6.8271   18.1291 H           1 V15       0.0599
     23 H7          2.7322    7.9214   16.9249 H           1 V15       0.0557
     24 H8          2.8678    4.4587   10.0906 H           1 V15       0.1918
     25 H9          2.9416    5.2563    8.6222 H           1 V15       0.1918
     26 H10         1.8199    6.7123   13.9627 H           1 V15       0.0499
     27 H11         0.6753    8.0135   13.7307 H           1 V15       0.0499
     28 H12         2.0492    9.2728   15.0259 H           1 V15       0.0454
     29 H13         3.0936    9.4481   13.6489 H           1 V15       0.0454
@<TRIPOS>BOND
     1     2     1  am
     2     3     1  am
     3     6     2   2
     4     2    12   1
     5     4     3   1
     6     3    16   2
     7     5     4   2
     8     5     6   1
     9    13     5   1
    10     7     8  ar
    11    14     7  ar
    12     8     9  ar
    13    10     9  ar
    14    11    10  ar
    15    14    11  ar
    16    15    13   1
    17    14    15   1
    18     1    17   1
    19     4    18   1
    20     7    19   1
    21     8    20   1
    22     9    21   1
    23    10    22   1
    24    11    23   1
    25    12    24   1
    26    12    25   1
    27    13    26   1
    28    13    27   1
    29    15    28   1
    30    15    29   1
@<TRIPOS>SUBSTRUCTURE
     1  V15      2

