@<TRIPOS>MOLECULE
2v00_ligand_043
    29    30
SMALL
GAST_HUCK
****
This file was generated by PARSER (from files_GN.cpp)

@<TRIPOS>ATOM
      1 N1         -3.0612    1.7005    6.5102 N.am        1 V15      -0.1828
      2 C2         -3.6090    2.3003    7.5976 C.2         1 V15       0.2430
      3 C3         -2.6833    0.4243    6.5559 C.2         1 V15       0.1868
      4 C4         -2.8201   -0.3057    7.7079 C.2         1 V15      -0.0134
      5 C5         -3.3585    0.2805    8.8036 C.2         1 V15      -0.0129
      6 N6         -3.7507    1.5659    8.7259 N.2         1 V15      -0.2880
      7 C8         -2.8941    2.3885   11.6891 C.ar        1 V15      -0.0601
      8 C9         -2.6022    3.7644   11.6240 C.ar        1 V15      -0.0686
      9 C10        -1.4109    4.2068   11.0210 C.ar        1 V15      -0.0687
     10 C11        -0.5159    3.2703   10.4736 C.ar        1 V15      -0.0686
     11 C12        -0.8073    1.8951   10.5358 C.ar        1 V15      -0.0601
     12 N14        -3.9894    3.5860    7.5817 N.pl3       1 V15      -0.2764
     13 C15        -3.4740   -0.3846   10.1013 C.3         1 V15       0.0000
     14 C7         -1.9946    1.4364   11.1537 C.ar        1 V15      -0.0405
     15 C16        -2.3514   -0.0106   11.1193 C.3         1 V15      -0.0061
     16 O15        -2.1633   -0.0682    5.5643 O.2         1 V15      -0.4228
     17 H1         -2.9378    2.2062    5.6921 H           1 V15       0.2550
     18 H2         -2.5067   -1.2472    7.7408 H           1 V15       0.0229
     19 H3         -3.7704    2.0863   12.1227 H           1 V15       0.0557
     20 H4         -3.2663    4.4440   11.9981 H           1 V15       0.0599
     21 H5         -1.2107    5.2050   10.9559 H           1 V15       0.0559
     22 H6          0.3380    3.5917   10.0088 H           1 V15       0.0599
     23 H7         -0.1507    1.2324   10.1140 H           1 V15       0.0557
     24 H8         -4.3632    3.9896    8.3798 H           1 V15       0.1918
     25 H9         -3.8718    4.1193    6.7786 H           1 V15       0.1918
     26 H10        -3.4700   -1.4771    9.9750 H           1 V15       0.0499
     27 H11        -4.4447   -0.1313   10.5315 H           1 V15       0.0499
     28 H12        -1.4698   -0.6058   10.8840 H           1 V15       0.0454
     29 H13        -2.6664   -0.3184   12.1233 H           1 V15       0.0454
@<TRIPOS>BOND
     1     2     1  am
     2     3     1  am
     3     6     2   2
     4     2    12   1
     5     4     3   1
     6     3    16   2
     7     5     4   2
     8     5     6   1
     9    13     5   1
    10     7     8  ar
    11    14     7  ar
    12     8     9  ar
    13    10     9  ar
    14    11    10  ar
    15    14    11  ar
    16    15    13   1
    17    14    15   1
    18     1    17   1
    19     4    18   1
    20     7    19   1
    21     8    20   1
    22     9    21   1
    23    10    22   1
    24    11    23   1
    25    12    24   1
    26    12    25   1
    27    13    26   1
    28    13    27   1
    29    15    28   1
    30    15    29   1
@<TRIPOS>SUBSTRUCTURE
     1  V15      2

