@<TRIPOS>MOLECULE
2v00_ligand_003
    29    30
SMALL
GAST_HUCK
****
This file was generated by PARSER (from files_GN.cpp)

@<TRIPOS>ATOM
      1 N1          0.3986    4.5017   10.5072 N.am        1 V15      -0.1828
      2 C2          1.0071    5.2899    9.5807 C.2         1 V15       0.2430
      3 C3         -0.8890    4.6618   10.7911 C.2         1 V15       0.1868
      4 C4         -1.6270    5.6404   10.1726 C.2         1 V15      -0.0134
      5 C5         -1.0290    6.4514    9.2635 C.2         1 V15      -0.0129
      6 N6          0.2702    6.2519    8.9754 N.2         1 V15      -0.2880
      7 C8         -0.7318   11.0299    7.9776 C.ar        1 V15      -0.0601
      8 C9         -0.2175   12.1535    8.6512 C.ar        1 V15      -0.0686
      9 C10         0.5568   11.9834    9.8101 C.ar        1 V15      -0.0687
     10 C11         0.8199   10.6905   10.2920 C.ar        1 V15      -0.0686
     11 C12         0.3185    9.5693    9.6089 C.ar        1 V15      -0.0601
     12 N14         2.2958    5.1018    9.2643 N.pl3       1 V15      -0.2764
     13 C15        -1.7946    7.4788    8.5537 C.3         1 V15       0.0000
     14 C7         -0.4791    9.7157    8.4453 C.ar        1 V15      -0.0405
     15 C16        -1.0053    8.5293    7.7016 C.3         1 V15      -0.0061
     16 O15        -1.4043    3.9210   11.6191 O.2         1 V15      -0.4228
     17 H1          0.9190    3.8127   10.9490 H           1 V15       0.2550
     18 H2         -2.5919    5.7468   10.3909 H           1 V15       0.0229
     19 H3         -1.2818   11.1830    7.1302 H           1 V15       0.0557
     20 H4         -0.4023   13.0931    8.2958 H           1 V15       0.0599
     21 H5          0.9333   12.7973   10.3017 H           1 V15       0.0559
     22 H6          1.3827   10.5635   11.1380 H           1 V15       0.0599
     23 H7          0.5354    8.6498    9.9831 H           1 V15       0.0557
     24 H8          2.7178    5.6545    8.5878 H           1 V15       0.1918
     25 H9          2.7886    4.3781    9.6778 H           1 V15       0.1918
     26 H10        -2.4082    8.0217    9.2747 H           1 V15       0.0499
     27 H11        -2.4805    6.9501    7.8854 H           1 V15       0.0499
     28 H12        -1.6814    8.8742    6.9093 H           1 V15       0.0454
     29 H13        -0.1705    8.0536    7.1839 H           1 V15       0.0454
@<TRIPOS>BOND
     1     2     1  am
     2     3     1  am
     3     6     2   2
     4     2    12   1
     5     4     3   1
     6     3    16   2
     7     5     4   2
     8     5     6   1
     9    13     5   1
    10     7     8  ar
    11    14     7  ar
    12     8     9  ar
    13    10     9  ar
    14    11    10  ar
    15    14    11  ar
    16    15    13   1
    17    14    15   1
    18     1    17   1
    19     4    18   1
    20     7    19   1
    21     8    20   1
    22     9    21   1
    23    10    22   1
    24    11    23   1
    25    12    24   1
    26    12    25   1
    27    13    26   1
    28    13    27   1
    29    15    28   1
    30    15    29   1
@<TRIPOS>SUBSTRUCTURE
     1  V15      2

