@<TRIPOS>MOLECULE
2v00_ligand_039
    29    30
SMALL
GAST_HUCK
****
This file was generated by PARSER (from files_GN.cpp)

@<TRIPOS>ATOM
      1 N1         -0.7989    1.8974   11.9916 N.am        1 V15      -0.1828
      2 C2         -0.8317    2.0496   10.6411 C.2         1 V15       0.2430
      3 C3         -1.7866    1.2663   12.6242 C.2         1 V15       0.1868
      4 C4         -2.8565    0.7727   11.9218 C.2         1 V15      -0.0134
      5 C5         -2.9054    0.9061   10.5771 C.2         1 V15      -0.0129
      6 N6         -1.8938    1.5462    9.9558 N.2         1 V15      -0.2880
      7 C8         -6.6996   -1.2961   10.1750 C.ar        1 V15      -0.0601
      8 C9         -8.0101   -1.6321    9.7781 C.ar        1 V15      -0.0686
      9 C10        -8.2478   -2.1233    8.4827 C.ar        1 V15      -0.0687
     10 C11        -7.1748   -2.2869    7.5888 C.ar        1 V15      -0.0686
     11 C12        -5.8665   -1.9558    7.9846 C.ar        1 V15      -0.0601
     12 N14         0.1477    2.7053   10.0028 N.pl3       1 V15      -0.2764
     13 C15        -4.0588    0.4704    9.7940 C.3         1 V15       0.0000
     14 C7         -5.6091   -1.4552    9.2852 C.ar        1 V15      -0.0405
     15 C16        -4.2318   -1.0735    9.7007 C.3         1 V15      -0.0061
     16 O15        -1.7192    1.1461   13.8355 O.2         1 V15      -0.4228
     17 H1         -0.0443    2.2492   12.4904 H           1 V15       0.2550
     18 H2         -3.6007    0.3429   12.4108 H           1 V15       0.0229
     19 H3         -6.5503   -0.9366   11.1162 H           1 V15       0.0557
     20 H4         -8.7894   -1.5191   10.4337 H           1 V15       0.0599
     21 H5         -9.1999   -2.3575    8.1921 H           1 V15       0.0559
     22 H6         -7.3494   -2.6418    6.6453 H           1 V15       0.0599
     23 H7         -5.1012   -2.0712    7.3153 H           1 V15       0.0557
     24 H8          0.1086    2.8200    9.0403 H           1 V15       0.1918
     25 H9          0.8976    3.0618   10.5045 H           1 V15       0.1918
     26 H10        -3.9809    0.8590    8.7737 H           1 V15       0.0499
     27 H11        -4.9602    0.9081   10.2369 H           1 V15       0.0499
     28 H12        -4.0191   -1.5454   10.6647 H           1 V15       0.0454
     29 H13        -3.4920   -1.4663    8.9942 H           1 V15       0.0454
@<TRIPOS>BOND
     1     2     1  am
     2     3     1  am
     3     6     2   2
     4     2    12   1
     5     4     3   1
     6     3    16   2
     7     5     4   2
     8     5     6   1
     9    13     5   1
    10     7     8  ar
    11    14     7  ar
    12     8     9  ar
    13    10     9  ar
    14    11    10  ar
    15    14    11  ar
    16    15    13   1
    17    14    15   1
    18     1    17   1
    19     4    18   1
    20     7    19   1
    21     8    20   1
    22     9    21   1
    23    10    22   1
    24    11    23   1
    25    12    24   1
    26    12    25   1
    27    13    26   1
    28    13    27   1
    29    15    28   1
    30    15    29   1
@<TRIPOS>SUBSTRUCTURE
     1  V15      2

