@<TRIPOS>MOLECULE
2v00_ligand_015
    29    30
SMALL
GAST_HUCK
****
This file was generated by PARSER (from files_GN.cpp)

@<TRIPOS>ATOM
      1 N1         -4.8707   -3.0439   12.8157 N.am        1 V15      -0.1828
      2 C2         -6.1959   -3.3270   12.7466 C.2         1 V15       0.2430
      3 C3         -4.3469   -2.0493   12.1049 C.2         1 V15       0.1868
      4 C4         -5.1372   -1.2776   11.3009 C.2         1 V15      -0.0134
      5 C5         -6.4729   -1.5019   11.2645 C.2         1 V15      -0.0129
      6 N6         -6.9813   -2.5353   11.9720 N.2         1 V15      -0.2880
      7 C8         -5.9116    1.8451    9.2096 C.ar        1 V15      -0.0601
      8 C9         -4.7517    2.5890    8.9222 C.ar        1 V15      -0.0686
      9 C10        -3.9879    3.1316    9.9704 C.ar        1 V15      -0.0687
     10 C11        -4.3967    2.9487   11.3014 C.ar        1 V15      -0.0686
     11 C12        -5.5552    2.2083   11.5911 C.ar        1 V15      -0.0601
     12 N14        -6.7040   -4.3852   13.3939 N.pl3       1 V15      -0.2764
     13 C15        -7.3769   -0.7125   10.4309 C.3         1 V15       0.0000
     14 C7         -6.3201    1.6303   10.5487 C.ar        1 V15      -0.0405
     15 C16        -7.5140    0.7860   10.8478 C.3         1 V15      -0.0061
     16 O15        -3.1442   -1.8413   12.1762 O.2         1 V15      -0.4228
     17 H1         -4.2973   -3.5809   13.3816 H           1 V15       0.2550
     18 H2         -4.7240   -0.5740   10.7352 H           1 V15       0.0229
     19 H3         -6.4497    1.4496    8.4346 H           1 V15       0.0557
     20 H4         -4.4634    2.7295    7.9540 H           1 V15       0.0599
     21 H5         -3.1407    3.6631    9.7620 H           1 V15       0.0559
     22 H6         -3.8418    3.3480   12.0636 H           1 V15       0.0599
     23 H7         -5.8290    2.0751   12.5682 H           1 V15       0.0557
     24 H8         -7.6450   -4.5973   13.3134 H           1 V15       0.1918
     25 H9         -6.1190   -4.9789   13.8897 H           1 V15       0.1918
     26 H10        -8.3811   -1.1498   10.4645 H           1 V15       0.0499
     27 H11        -7.0477   -0.7828    9.3890 H           1 V15       0.0499
     28 H12        -7.7592    0.8155   11.9147 H           1 V15       0.0454
     29 H13        -8.3708    1.2169   10.3202 H           1 V15       0.0454
@<TRIPOS>BOND
     1     2     1  am
     2     3     1  am
     3     6     2   2
     4     2    12   1
     5     4     3   1
     6     3    16   2
     7     5     4   2
     8     5     6   1
     9    13     5   1
    10     7     8  ar
    11    14     7  ar
    12     8     9  ar
    13    10     9  ar
    14    11    10  ar
    15    14    11  ar
    16    15    13   1
    17    14    15   1
    18     1    17   1
    19     4    18   1
    20     7    19   1
    21     8    20   1
    22     9    21   1
    23    10    22   1
    24    11    23   1
    25    12    24   1
    26    12    25   1
    27    13    26   1
    28    13    27   1
    29    15    28   1
    30    15    29   1
@<TRIPOS>SUBSTRUCTURE
     1  V15      2

