@<TRIPOS>MOLECULE
2v00_ligand_019
    29    30
SMALL
GAST_HUCK
****
This file was generated by PARSER (from files_GN.cpp)

@<TRIPOS>ATOM
      1 N1         -0.1546   -0.0673    7.3819 N.am        1 V15      -0.1828
      2 C2         -0.5758    0.0395    6.0976 C.2         1 V15       0.2430
      3 C3         -0.8425    0.5064    8.3666 C.2         1 V15       0.1868
      4 C4         -2.0096    1.1682    8.1150 C.2         1 V15      -0.0134
      5 C5         -2.4210    1.3446    6.8378 C.2         1 V15      -0.0129
      6 N6         -1.6942    0.7691    5.8510 N.2         1 V15      -0.2880
      7 C8         -3.8256    3.5122    9.7845 C.ar        1 V15      -0.0601
      8 C9         -3.1493    4.4210   10.6195 C.ar        1 V15      -0.0686
      9 C10        -2.6570    5.6224   10.0863 C.ar        1 V15      -0.0687
     10 C11        -2.8428    5.9176    8.7256 C.ar        1 V15      -0.0686
     11 C12        -3.4855    4.9896    7.8881 C.ar        1 V15      -0.0601
     12 N14         0.1178   -0.5625    5.1192 N.pl3       1 V15      -0.2764
     13 C15        -3.5922    2.1178    6.4269 C.3         1 V15       0.0000
     14 C7         -3.9503    3.7530    8.3956 C.ar        1 V15      -0.0405
     15 C16        -4.5618    2.7352    7.4876 C.3         1 V15      -0.0061
     16 O15        -0.3920    0.4242    9.5008 O.2         1 V15      -0.4228
     17 H1          0.6427   -0.5811    7.5732 H           1 V15       0.2550
     18 H2         -2.5413    1.4889    8.8720 H           1 V15       0.0229
     19 H3         -4.1947    2.6458   10.1947 H           1 V15       0.0557
     20 H4         -3.0196    4.2061   11.6119 H           1 V15       0.0599
     21 H5         -2.1516    6.2781   10.6883 H           1 V15       0.0559
     22 H6         -2.4935    6.7960    8.3434 H           1 V15       0.0599
     23 H7         -3.5956    5.2129    6.8926 H           1 V15       0.0557
     24 H8         -0.1574   -0.4917    4.1875 H           1 V15       0.1918
     25 H9          0.9193   -1.0745    5.3368 H           1 V15       0.1918
     26 H10        -4.2015    1.4596    5.8002 H           1 V15       0.0499
     27 H11        -3.2433    2.9282    5.7839 H           1 V15       0.0499
     28 H12        -4.9944    1.9139    8.0644 H           1 V15       0.0454
     29 H13        -5.3948    3.2133    6.9588 H           1 V15       0.0454
@<TRIPOS>BOND
     1     2     1  am
     2     3     1  am
     3     6     2   2
     4     2    12   1
     5     4     3   1
     6     3    16   2
     7     5     4   2
     8     5     6   1
     9    13     5   1
    10     7     8  ar
    11    14     7  ar
    12     8     9  ar
    13    10     9  ar
    14    11    10  ar
    15    14    11  ar
    16    15    13   1
    17    14    15   1
    18     1    17   1
    19     4    18   1
    20     7    19   1
    21     8    20   1
    22     9    21   1
    23    10    22   1
    24    11    23   1
    25    12    24   1
    26    12    25   1
    27    13    26   1
    28    13    27   1
    29    15    28   1
    30    15    29   1
@<TRIPOS>SUBSTRUCTURE
     1  V15      2

