@<TRIPOS>MOLECULE
2v00_ligand_026
    29    30
SMALL
GAST_HUCK
****
This file was generated by PARSER (from files_GN.cpp)

@<TRIPOS>ATOM
      1 N1         -2.4265   -0.1050    6.0017 N.am        1 V15      -0.1828
      2 C2         -1.1051    0.0730    6.2578 C.2         1 V15       0.2430
      3 C3         -3.3356    0.1618    6.9388 C.2         1 V15       0.1868
      4 C4         -2.9622    0.6433    8.1697 C.2         1 V15      -0.0134
      5 C5         -1.6473    0.7537    8.4740 C.2         1 V15      -0.0129
      6 N6         -0.7470    0.4872    7.5002 N.2         1 V15      -0.2880
      7 C8         -3.0426   -0.7827   11.4199 C.ar        1 V15      -0.0601
      8 C9         -4.1989   -1.5803   11.5121 C.ar        1 V15      -0.0686
      9 C10        -5.4728   -0.9813   11.5072 C.ar        1 V15      -0.0687
     10 C11        -5.5870    0.4176   11.4468 C.ar        1 V15      -0.0686
     11 C12        -4.4329    1.2126   11.3502 C.ar        1 V15      -0.0601
     12 N14        -0.1755   -0.1645    5.3176 N.pl3       1 V15      -0.2764
     13 C15        -1.0768    1.0958    9.7808 C.3         1 V15       0.0000
     14 C7         -3.1484    0.6207   11.2821 C.ar        1 V15      -0.0405
     15 C16        -1.9496    1.4673   11.0214 C.3         1 V15      -0.0061
     16 O15        -4.5067   -0.0980    6.7053 O.2         1 V15      -0.4228
     17 H1         -2.7075   -0.4735    5.1472 H           1 V15       0.2550
     18 H2         -3.6620    0.8848    8.8301 H           1 V15       0.0229
     19 H3         -2.1298   -1.2376   11.4351 H           1 V15       0.0557
     20 H4         -4.1185   -2.5976   11.5762 H           1 V15       0.0599
     21 H5         -6.3132   -1.5609   11.5570 H           1 V15       0.0559
     22 H6         -6.5078    0.8582   11.4706 H           1 V15       0.0599
     23 H7         -4.5382    2.2290   11.3157 H           1 V15       0.0557
     24 H8          0.7638   -0.0113    5.5082 H           1 V15       0.1918
     25 H9         -0.4291   -0.4303    4.4184 H           1 V15       0.1918
     26 H10        -0.3983    1.9411    9.6186 H           1 V15       0.0499
     27 H11        -0.4513    0.2493   10.0825 H           1 V15       0.0499
     28 H12        -2.2341    2.5202   10.9191 H           1 V15       0.0454
     29 H13        -1.3092    1.4107   11.9095 H           1 V15       0.0454
@<TRIPOS>BOND
     1     2     1  am
     2     3     1  am
     3     6     2   2
     4     2    12   1
     5     4     3   1
     6     3    16   2
     7     5     4   2
     8     5     6   1
     9    13     5   1
    10     7     8  ar
    11    14     7  ar
    12     8     9  ar
    13    10     9  ar
    14    11    10  ar
    15    14    11  ar
    16    15    13   1
    17    14    15   1
    18     1    17   1
    19     4    18   1
    20     7    19   1
    21     8    20   1
    22     9    21   1
    23    10    22   1
    24    11    23   1
    25    12    24   1
    26    12    25   1
    27    13    26   1
    28    13    27   1
    29    15    28   1
    30    15    29   1
@<TRIPOS>SUBSTRUCTURE
     1  V15      2

