@<TRIPOS>MOLECULE
2v00_ligand_042
    29    30
SMALL
GAST_HUCK
****
This file was generated by PARSER (from files_GN.cpp)

@<TRIPOS>ATOM
      1 N1         -5.9713    2.0312    4.9599 N.am        1 V15      -0.1828
      2 C2         -6.7976    1.5389    4.0034 C.2         1 V15       0.2430
      3 C3         -6.4478    2.7552    5.9695 C.2         1 V15       0.1868
      4 C4         -7.7866    3.0170    6.0661 C.2         1 V15      -0.0134
      5 C5         -8.6282    2.5359    5.1202 C.2         1 V15      -0.0129
      6 N6         -8.1266    1.8036    4.1011 N.2         1 V15      -0.2880
      7 C8        -11.0758    1.8952    8.0029 C.ar        1 V15      -0.0601
      8 C9        -10.8831    1.5220    9.3459 C.ar        1 V15      -0.0686
      9 C10       -10.2790    0.2904    9.6545 C.ar        1 V15      -0.0687
     10 C11        -9.8704   -0.5687    8.6185 C.ar        1 V15      -0.0686
     11 C12       -10.0709   -0.1988    7.2752 C.ar        1 V15      -0.0601
     12 N14        -6.2911    0.8071    2.9993 N.pl3       1 V15      -0.2764
     13 C15       -10.0722    2.7434    5.1732 C.3         1 V15       0.0000
     14 C7        -10.6766    1.0382    6.9495 C.ar        1 V15      -0.0405
     15 C16       -10.8595    1.4522    5.5299 C.3         1 V15      -0.0061
     16 O15        -5.6622    3.1832    6.8014 O.2         1 V15      -0.4228
     17 H1         -5.0187    1.8707    4.8815 H           1 V15       0.2550
     18 H2         -8.1334    3.5401    6.8380 H           1 V15       0.0229
     19 H3        -11.5123    2.7975    7.7975 H           1 V15       0.0557
     20 H4        -11.1803    2.1474   10.0985 H           1 V15       0.0599
     21 H5        -10.1353    0.0205   10.6303 H           1 V15       0.0559
     22 H6         -9.4253   -1.4616    8.8426 H           1 V15       0.0599
     23 H7         -9.7586   -0.8330    6.5359 H           1 V15       0.0557
     24 H8         -6.8619    0.4578    2.2999 H           1 V15       0.1918
     25 H9         -5.3473    0.5857    2.9988 H           1 V15       0.1918
     26 H10       -10.4054    3.1001    4.1946 H           1 V15       0.0499
     27 H11       -10.3370    3.5252    5.8924 H           1 V15       0.0499
     28 H12       -10.5608    0.6482    4.8510 H           1 V15       0.0454
     29 H13       -11.9234    1.6276    5.3458 H           1 V15       0.0454
@<TRIPOS>BOND
     1     2     1  am
     2     3     1  am
     3     6     2   2
     4     2    12   1
     5     4     3   1
     6     3    16   2
     7     5     4   2
     8     5     6   1
     9    13     5   1
    10     7     8  ar
    11    14     7  ar
    12     8     9  ar
    13    10     9  ar
    14    11    10  ar
    15    14    11  ar
    16    15    13   1
    17    14    15   1
    18     1    17   1
    19     4    18   1
    20     7    19   1
    21     8    20   1
    22     9    21   1
    23    10    22   1
    24    11    23   1
    25    12    24   1
    26    12    25   1
    27    13    26   1
    28    13    27   1
    29    15    28   1
    30    15    29   1
@<TRIPOS>SUBSTRUCTURE
     1  V15      2

