@<TRIPOS>MOLECULE
2v00_ligand_017
    29    30
SMALL
GAST_HUCK
****
This file was generated by PARSER (from files_GN.cpp)

@<TRIPOS>ATOM
      1 N1          2.8246    7.3499    9.4729 N.am        1 V15      -0.1828
      2 C2          1.8548    6.4482    9.1486 C.2         1 V15       0.2430
      3 C3          2.5722    8.6567    9.4547 C.2         1 V15       0.1868
      4 C4          1.3374    9.1248    9.1161 C.2         1 V15      -0.0134
      5 C5          0.3603    8.2490    8.7881 C.2         1 V15      -0.0129
      6 N6          0.6293    6.9277    8.8165 N.2         1 V15      -0.2880
      7 C8         -3.7602    9.2022    7.2432 C.ar        1 V15      -0.0601
      8 C9         -4.8696    9.9436    6.7958 C.ar        1 V15      -0.0686
      9 C10        -4.8217   10.6006    5.5556 C.ar        1 V15      -0.0687
     10 C11        -3.6575   10.5281    4.7674 C.ar        1 V15      -0.0686
     11 C12        -2.5382    9.8064    5.2279 C.ar        1 V15      -0.0601
     12 N14         2.0706    5.1198    9.1329 N.pl3       1 V15      -0.2764
     13 C15        -0.9899    8.6798    8.4481 C.3         1 V15       0.0000
     14 C7         -2.5668    9.1462    6.4802 C.ar        1 V15      -0.0405
     15 C16        -1.3957    8.3650    6.9766 C.3         1 V15      -0.0061
     16 O15         3.4610    9.4374    9.7631 O.2         1 V15      -0.4228
     17 H1          3.7058    7.0430    9.7379 H           1 V15       0.2550
     18 H2          1.1576   10.1000    9.1317 H           1 V15       0.0229
     19 H3         -3.8249    8.7119    8.1373 H           1 V15       0.0557
     20 H4         -5.7091   10.0043    7.3744 H           1 V15       0.0599
     21 H5         -5.6270   11.1332    5.2239 H           1 V15       0.0559
     22 H6         -3.6210   11.0055    3.8642 H           1 V15       0.0599
     23 H7         -1.7068    9.7570    4.6327 H           1 V15       0.0557
     24 H8          1.3467    4.5231    8.8879 H           1 V15       0.1918
     25 H9          2.9380    4.7388    9.3416 H           1 V15       0.1918
     26 H10        -1.1006    9.7570    8.6041 H           1 V15       0.0499
     27 H11        -1.6730    8.1824    9.1446 H           1 V15       0.0499
     28 H12        -1.6428    7.3029    6.8866 H           1 V15       0.0454
     29 H13        -0.5250    8.5485    6.3396 H           1 V15       0.0454
@<TRIPOS>BOND
     1     2     1  am
     2     3     1  am
     3     6     2   2
     4     2    12   1
     5     4     3   1
     6     3    16   2
     7     5     4   2
     8     5     6   1
     9    13     5   1
    10     7     8  ar
    11    14     7  ar
    12     8     9  ar
    13    10     9  ar
    14    11    10  ar
    15    14    11  ar
    16    15    13   1
    17    14    15   1
    18     1    17   1
    19     4    18   1
    20     7    19   1
    21     8    20   1
    22     9    21   1
    23    10    22   1
    24    11    23   1
    25    12    24   1
    26    12    25   1
    27    13    26   1
    28    13    27   1
    29    15    28   1
    30    15    29   1
@<TRIPOS>SUBSTRUCTURE
     1  V15      2

