@<TRIPOS>MOLECULE
2v00_ligand_033
    29    30
SMALL
GAST_HUCK
****
This file was generated by PARSER (from files_GN.cpp)

@<TRIPOS>ATOM
      1 N1         -2.2910    0.0970   11.2873 N.am        1 V15      -0.1828
      2 C2         -2.7925    0.6113   10.1312 C.2         1 V15       0.2430
      3 C3         -2.2118    0.8477   12.3853 C.2         1 V15       0.1868
      4 C4         -2.5846    2.1618   12.3638 C.2         1 V15      -0.0134
      5 C5         -3.0562    2.6978   11.2120 C.2         1 V15      -0.0129
      6 N6         -3.1841    1.9140   10.1237 N.2         1 V15      -0.2880
      7 C8         -0.5636    3.8655    9.5065 C.ar        1 V15      -0.0601
      8 C9          0.8337    3.9743    9.4213 C.ar        1 V15      -0.0686
      9 C10         1.4611    5.2134    9.6629 C.ar        1 V15      -0.0687
     10 C11         0.6819    6.3433    9.9632 C.ar        1 V15      -0.0686
     11 C12        -0.7203    6.2281   10.0495 C.ar        1 V15      -0.0601
     12 N14        -2.8539   -0.1227    9.0141 N.pl3       1 V15      -0.2764
     13 C15        -3.4390    4.0940   11.1043 C.3         1 V15       0.0000
     14 C7         -1.3644    4.9862    9.8395 C.ar        1 V15      -0.0405
     15 C16        -2.8513    4.8706    9.8868 C.3         1 V15      -0.0061
     16 O15        -1.7926    0.3524   13.4194 O.2         1 V15      -0.4228
     17 H1         -1.9961   -0.8258   11.3111 H           1 V15       0.2550
     18 H2         -2.4827    2.7172   13.1815 H           1 V15       0.0229
     19 H3         -0.9958    2.9658    9.2990 H           1 V15       0.0557
     20 H4          1.3958    3.1627    9.1682 H           1 V15       0.0599
     21 H5          2.4807    5.2872    9.6078 H           1 V15       0.0559
     22 H6          1.1291    7.2493   10.1105 H           1 V15       0.0599
     23 H7         -1.2689    7.0613   10.2582 H           1 V15       0.0557
     24 H8         -3.1999    0.2644    8.1922 H           1 V15       0.1918
     25 H9         -2.4588   -1.0073    9.0007 H           1 V15       0.1918
     26 H10        -3.1883    4.6541   12.0085 H           1 V15       0.0499
     27 H11        -4.5246    4.1048   11.0231 H           1 V15       0.0499
     28 H12        -3.2937    5.8713    9.9073 H           1 V15       0.0454
     29 H13        -3.1996    4.4109    8.9574 H           1 V15       0.0454
@<TRIPOS>BOND
     1     2     1  am
     2     3     1  am
     3     6     2   2
     4     2    12   1
     5     4     3   1
     6     3    16   2
     7     5     4   2
     8     5     6   1
     9    13     5   1
    10     7     8  ar
    11    14     7  ar
    12     8     9  ar
    13    10     9  ar
    14    11    10  ar
    15    14    11  ar
    16    15    13   1
    17    14    15   1
    18     1    17   1
    19     4    18   1
    20     7    19   1
    21     8    20   1
    22     9    21   1
    23    10    22   1
    24    11    23   1
    25    12    24   1
    26    12    25   1
    27    13    26   1
    28    13    27   1
    29    15    28   1
    30    15    29   1
@<TRIPOS>SUBSTRUCTURE
     1  V15      2

