@<TRIPOS>MOLECULE
2v00_ligand_020
    29    30
SMALL
GAST_HUCK
****
This file was generated by PARSER (from files_GN.cpp)

@<TRIPOS>ATOM
      1 N1         -2.4604   -0.0266    6.1310 N.am        1 V15      -0.1828
      2 C2         -1.1199    0.0753    6.3094 C.2         1 V15       0.2430
      3 C3         -3.2982    0.2519    7.1258 C.2         1 V15       0.1868
      4 C4         -2.8295    0.6319    8.3539 C.2         1 V15      -0.0134
      5 C5         -1.4954    0.7573    8.5529 C.2         1 V15      -0.0129
      6 N6         -0.6643    0.4701    7.5285 N.2         1 V15      -0.2880
      7 C8         -1.7189    4.7868   10.0520 C.ar        1 V15      -0.0601
      8 C9         -1.2397    5.9938    9.5070 C.ar        1 V15      -0.0686
      9 C10         0.0451    6.0502    8.9349 C.ar        1 V15      -0.0687
     10 C11         0.8534    4.9008    8.9208 C.ar        1 V15      -0.0686
     11 C12         0.3754    3.6956    9.4692 C.ar        1 V15      -0.0601
     12 N14        -0.2452   -0.2119    5.3339 N.pl3       1 V15      -0.2764
     13 C15        -0.8929    1.0730    9.8492 C.3         1 V15       0.0000
     14 C7         -0.9218    3.6167   10.0302 C.ar        1 V15      -0.0405
     15 C16        -1.4144    2.3357   10.5966 C.3         1 V15      -0.0061
     16 O15        -4.5012    0.1367    6.9286 O.2         1 V15      -0.4228
     17 H1         -2.8160   -0.3228    5.2751 H           1 V15       0.2550
     18 H2         -3.4745    0.7951    9.0903 H           1 V15       0.0229
     19 H3         -2.6541    4.7696   10.4680 H           1 V15       0.0557
     20 H4         -1.8236    6.8324    9.5223 H           1 V15       0.0599
     21 H5          0.3897    6.9227    8.5290 H           1 V15       0.0559
     22 H6          1.7882    4.9393    8.5103 H           1 V15       0.0599
     23 H7          0.9833    2.8753    9.4552 H           1 V15       0.0557
     24 H8          0.7036   -0.1213    5.5057 H           1 V15       0.1918
     25 H9         -0.5460   -0.4819    4.4519 H           1 V15       0.1918
     26 H10         0.1939    1.1748    9.7216 H           1 V15       0.0499
     27 H11        -1.0533    0.2111   10.5029 H           1 V15       0.0499
     28 H12        -1.1010    2.2739   11.6463 H           1 V15       0.0454
     29 H13        -2.5095    2.3180   10.6024 H           1 V15       0.0454
@<TRIPOS>BOND
     1     2     1  am
     2     3     1  am
     3     6     2   2
     4     2    12   1
     5     4     3   1
     6     3    16   2
     7     5     4   2
     8     5     6   1
     9    13     5   1
    10     7     8  ar
    11    14     7  ar
    12     8     9  ar
    13    10     9  ar
    14    11    10  ar
    15    14    11  ar
    16    15    13   1
    17    14    15   1
    18     1    17   1
    19     4    18   1
    20     7    19   1
    21     8    20   1
    22     9    21   1
    23    10    22   1
    24    11    23   1
    25    12    24   1
    26    12    25   1
    27    13    26   1
    28    13    27   1
    29    15    28   1
    30    15    29   1
@<TRIPOS>SUBSTRUCTURE
     1  V15      2

