@<TRIPOS>MOLECULE
2v00_ligand_024
    29    30
SMALL
GAST_HUCK
****
This file was generated by PARSER (from files_GN.cpp)

@<TRIPOS>ATOM
      1 N1          1.5245    7.4722    9.8648 N.am        1 V15      -0.1828
      2 C2          1.5699    6.2014    9.3818 C.2         1 V15       0.2430
      3 C3          0.4821    8.2607    9.6214 C.2         1 V15       0.1868
      4 C4         -0.5660    7.8099    8.8723 C.2         1 V15      -0.0134
      5 C5         -0.5541    6.5403    8.3976 C.2         1 V15      -0.0129
      6 N6          0.5136    5.7518    8.6537 N.2         1 V15      -0.2880
      7 C8         -3.8710    3.6661    8.6179 C.ar        1 V15      -0.0601
      8 C9         -4.1488    2.6044    9.4983 C.ar        1 V15      -0.0686
      9 C10        -3.8212    2.7186   10.8600 C.ar        1 V15      -0.0687
     10 C11        -3.2061    3.8893   11.3374 C.ar        1 V15      -0.0686
     11 C12        -2.9197    4.9491   10.4546 C.ar        1 V15      -0.0601
     12 N14         2.6470    5.4397    9.6210 N.pl3       1 V15      -0.2764
     13 C15        -1.6154    6.0359    7.5299 C.3         1 V15       0.0000
     14 C7         -3.2598    4.8543    9.0846 C.ar        1 V15      -0.0405
     15 C16        -3.0365    6.0010    8.1614 C.3         1 V15      -0.0061
     16 O15         0.4851    9.3989   10.0669 O.2         1 V15      -0.4228
     17 H1          2.2677    7.8128   10.3901 H           1 V15       0.2550
     18 H2         -1.3172    8.4263    8.6667 H           1 V15       0.0229
     19 H3         -4.1328    3.5674    7.6326 H           1 V15       0.0557
     20 H4         -4.5998    1.7554    9.1515 H           1 V15       0.0599
     21 H5         -4.0312    1.9527   11.5042 H           1 V15       0.0559
     22 H6         -2.9746    3.9746   12.3276 H           1 V15       0.0599
     23 H7         -2.4860    5.7995   10.8197 H           1 V15       0.0557
     24 H8          2.7153    4.5337    9.2777 H           1 V15       0.1918
     25 H9          3.3765    5.8076   10.1430 H           1 V15       0.1918
     26 H10        -1.3695    5.0359    7.1604 H           1 V15       0.0499
     27 H11        -1.6545    6.6863    6.6528 H           1 V15       0.0499
     28 H12        -3.7644    5.9516    7.3463 H           1 V15       0.0454
     29 H13        -3.2527    6.9361    8.6858 H           1 V15       0.0454
@<TRIPOS>BOND
     1     2     1  am
     2     3     1  am
     3     6     2   2
     4     2    12   1
     5     4     3   1
     6     3    16   2
     7     5     4   2
     8     5     6   1
     9    13     5   1
    10     7     8  ar
    11    14     7  ar
    12     8     9  ar
    13    10     9  ar
    14    11    10  ar
    15    14    11  ar
    16    15    13   1
    17    14    15   1
    18     1    17   1
    19     4    18   1
    20     7    19   1
    21     8    20   1
    22     9    21   1
    23    10    22   1
    24    11    23   1
    25    12    24   1
    26    12    25   1
    27    13    26   1
    28    13    27   1
    29    15    28   1
    30    15    29   1
@<TRIPOS>SUBSTRUCTURE
     1  V15      2

