@<TRIPOS>MOLECULE
2v00_ligand_036
    29    30
SMALL
GAST_HUCK
****
This file was generated by PARSER (from files_GN.cpp)

@<TRIPOS>ATOM
      1 N1         -1.9536    1.6217    5.8485 N.am        1 V15      -0.1828
      2 C2         -1.7690    0.3955    6.4106 C.2         1 V15       0.2430
      3 C3         -3.1615    2.1695    5.7825 C.2         1 V15       0.1868
      4 C4         -4.2543    1.4978    6.2477 C.2         1 V15      -0.0134
      5 C5         -4.1037    0.2699    6.8028 C.2         1 V15      -0.0129
      6 N6         -2.8646   -0.2625    6.8771 N.2         1 V15      -0.2880
      7 C8         -7.7317   -1.8423    8.2972 C.ar        1 V15      -0.0601
      8 C9         -9.0153   -2.3406    8.5935 C.ar        1 V15      -0.0686
      9 C10        -9.8657   -1.6198    9.4509 C.ar        1 V15      -0.0687
     10 C11        -9.4275   -0.4071   10.0134 C.ar        1 V15      -0.0686
     11 C12        -8.1437    0.0916    9.7125 C.ar        1 V15      -0.0601
     12 N14        -0.5556   -0.1696    6.5120 N.pl3       1 V15      -0.2764
     13 C15        -5.2334   -0.5310    7.2287 C.3         1 V15       0.0000
     14 C7         -7.2752   -0.6074    8.8347 C.ar        1 V15      -0.0405
     15 C16        -5.9372   -0.0247    8.5213 C.3         1 V15      -0.0061
     16 O15        -3.2876    3.2813    5.2842 O.2         1 V15      -0.4228
     17 H1         -1.1893    2.1042    5.4987 H           1 V15       0.2550
     18 H2         -5.1642    1.8923    6.1431 H           1 V15       0.0229
     19 H3         -7.1444   -2.4129    7.6882 H           1 V15       0.0557
     20 H4         -9.3208   -3.2234    8.1832 H           1 V15       0.0599
     21 H5        -10.7955   -1.9829    9.6620 H           1 V15       0.0559
     22 H6        -10.0444    0.1096   10.6398 H           1 V15       0.0599
     23 H7         -7.8515    0.9803   10.1307 H           1 V15       0.0557
     24 H8         -0.4473   -0.9961    7.0068 H           1 V15       0.1918
     25 H9          0.2231    0.2820    6.1484 H           1 V15       0.1918
     26 H10        -4.9071   -1.5615    7.3954 H           1 V15       0.0499
     27 H11        -5.9644   -0.5581    6.4083 H           1 V15       0.0499
     28 H12        -6.0523    1.0595    8.4335 H           1 V15       0.0454
     29 H13        -5.2785   -0.2163    9.3725 H           1 V15       0.0454
@<TRIPOS>BOND
     1     2     1  am
     2     3     1  am
     3     6     2   2
     4     2    12   1
     5     4     3   1
     6     3    16   2
     7     5     4   2
     8     5     6   1
     9    13     5   1
    10     7     8  ar
    11    14     7  ar
    12     8     9  ar
    13    10     9  ar
    14    11    10  ar
    15    14    11  ar
    16    15    13   1
    17    14    15   1
    18     1    17   1
    19     4    18   1
    20     7    19   1
    21     8    20   1
    22     9    21   1
    23    10    22   1
    24    11    23   1
    25    12    24   1
    26    12    25   1
    27    13    26   1
    28    13    27   1
    29    15    28   1
    30    15    29   1
@<TRIPOS>SUBSTRUCTURE
     1  V15      2

