@<TRIPOS>MOLECULE
2v00_ligand_008
    29    30
SMALL
GAST_HUCK
****
This file was generated by PARSER (from files_GN.cpp)

@<TRIPOS>ATOM
      1 N1          2.9504    7.3170    9.4399 N.am        1 V15      -0.1828
      2 C2          2.5318    6.2514   10.1598 C.2         1 V15       0.2430
      3 C3          3.0638    8.5155   10.0095 C.2         1 V15       0.1868
      4 C4          2.7731    8.6841   11.3363 C.2         1 V15      -0.0134
      5 C5          2.3268    7.6363   12.0799 C.2         1 V15      -0.0129
      6 N6          2.2112    6.4343   11.4690 N.2         1 V15      -0.2880
      7 C8          2.6007   11.3421   13.8115 C.ar        1 V15      -0.0601
      8 C9          2.1053   12.5644   13.3280 C.ar        1 V15      -0.0686
      9 C10         0.7384   12.7001   13.0246 C.ar        1 V15      -0.0687
     10 C11        -0.1373   11.6151   13.2203 C.ar        1 V15      -0.0686
     11 C12         0.3618   10.3951   13.7148 C.ar        1 V15      -0.0601
     12 N14         2.4774    5.0465    9.5831 N.pl3       1 V15      -0.2764
     13 C15         1.9276    7.6831   13.4887 C.3         1 V15       0.0000
     14 C7          1.7429   10.2317   13.9870 C.ar        1 V15      -0.0405
     15 C16         2.2872    8.9031   14.3930 C.3         1 V15      -0.0061
     16 O15         3.4365    9.4662    9.3332 O.2         1 V15      -0.4228
     17 H1          3.1578    7.2044    8.5065 H           1 V15       0.2550
     18 H2          2.8915    9.5842   11.7313 H           1 V15       0.0229
     19 H3          3.6050   11.2566   13.9822 H           1 V15       0.0557
     20 H4          2.7406   13.3534   13.1801 H           1 V15       0.0599
     21 H5          0.3748   13.5908   12.6710 H           1 V15       0.0559
     22 H6         -1.1284   11.7065   12.9949 H           1 V15       0.0599
     23 H7         -0.2860    9.6164   13.8226 H           1 V15       0.0557
     24 H8          2.2275    4.2677   10.1025 H           1 V15       0.1918
     25 H9          2.7818    4.9462    8.6629 H           1 V15       0.1918
     26 H10         2.3815    6.8206   13.9893 H           1 V15       0.0499
     27 H11         0.8515    7.5125   13.5213 H           1 V15       0.0499
     28 H12         3.3779    8.9460   14.4711 H           1 V15       0.0454
     29 H13         1.9159    8.6927   15.4023 H           1 V15       0.0454
@<TRIPOS>BOND
     1     2     1  am
     2     3     1  am
     3     6     2   2
     4     2    12   1
     5     4     3   1
     6     3    16   2
     7     5     4   2
     8     5     6   1
     9    13     5   1
    10     7     8  ar
    11    14     7  ar
    12     8     9  ar
    13    10     9  ar
    14    11    10  ar
    15    14    11  ar
    16    15    13   1
    17    14    15   1
    18     1    17   1
    19     4    18   1
    20     7    19   1
    21     8    20   1
    22     9    21   1
    23    10    22   1
    24    11    23   1
    25    12    24   1
    26    12    25   1
    27    13    26   1
    28    13    27   1
    29    15    28   1
    30    15    29   1
@<TRIPOS>SUBSTRUCTURE
     1  V15      2

