@<TRIPOS>MOLECULE
2v00_ligand_031
    29    30
SMALL
GAST_HUCK
****
This file was generated by PARSER (from files_GN.cpp)

@<TRIPOS>ATOM
      1 N1         -4.8719   -2.7550   12.5052 N.am        1 V15      -0.1828
      2 C2         -6.1752   -3.1355   12.4842 C.2         1 V15       0.2430
      3 C3         -4.4918   -1.5971   11.9687 C.2         1 V15       0.1868
      4 C4         -5.4077   -0.7579   11.3975 C.2         1 V15      -0.0134
      5 C5         -6.7132   -1.1193   11.3611 C.2         1 V15      -0.0129
      6 N6         -7.0798   -2.2981   11.9149 N.2         1 V15      -0.2880
      7 C8         -8.2604   -0.9067    7.0870 C.ar        1 V15      -0.0601
      8 C9         -7.5498   -1.2181    5.9129 C.ar        1 V15      -0.0686
      9 C10        -6.3206   -1.9014    5.9928 C.ar        1 V15      -0.0687
     10 C11        -5.8100   -2.2717    7.2503 C.ar        1 V15      -0.0686
     11 C12        -6.5243   -1.9690    8.4233 C.ar        1 V15      -0.0601
     12 N14        -6.5649   -4.3164   12.9946 N.pl3       1 V15      -0.2764
     13 C15        -7.7557   -0.3010   10.7428 C.3         1 V15       0.0000
     14 C7         -7.7613   -1.2785    8.3643 C.ar        1 V15      -0.0405
     15 C16        -8.5472   -1.0053    9.6047 C.3         1 V15      -0.0061
     16 O15        -3.3078   -1.2952   12.0119 O.2         1 V15      -0.4228
     17 H1         -4.2117   -3.3306   12.9190 H           1 V15       0.2550
     18 H2         -5.1063    0.0995   10.9890 H           1 V15       0.0229
     19 H3         -9.1527   -0.4055    7.0041 H           1 V15       0.0557
     20 H4         -7.9305   -0.9539    4.9995 H           1 V15       0.0599
     21 H5         -5.7957   -2.1255    5.1435 H           1 V15       0.0559
     22 H6         -4.9216   -2.7734    7.3058 H           1 V15       0.0599
     23 H7         -6.1353   -2.2593    9.3243 H           1 V15       0.0557
     24 H8         -7.4974   -4.5806   12.9537 H           1 V15       0.1918
     25 H9         -5.9115   -4.9242   13.3822 H           1 V15       0.1918
     26 H10        -7.3494    0.6331   10.3511 H           1 V15       0.0499
     27 H11        -8.4582   -0.0171   11.5308 H           1 V15       0.0499
     28 H12        -9.4087   -0.3694    9.3782 H           1 V15       0.0454
     29 H13        -8.9629   -1.9414    9.9749 H           1 V15       0.0454
@<TRIPOS>BOND
     1     2     1  am
     2     3     1  am
     3     6     2   2
     4     2    12   1
     5     4     3   1
     6     3    16   2
     7     5     4   2
     8     5     6   1
     9    13     5   1
    10     7     8  ar
    11    14     7  ar
    12     8     9  ar
    13    10     9  ar
    14    11    10  ar
    15    14    11  ar
    16    15    13   1
    17    14    15   1
    18     1    17   1
    19     4    18   1
    20     7    19   1
    21     8    20   1
    22     9    21   1
    23    10    22   1
    24    11    23   1
    25    12    24   1
    26    12    25   1
    27    13    26   1
    28    13    27   1
    29    15    28   1
    30    15    29   1
@<TRIPOS>SUBSTRUCTURE
     1  V15      2

