@<TRIPOS>MOLECULE
2v00_ligand_045
    29    30
SMALL
GAST_HUCK
****
This file was generated by PARSER (from files_GN.cpp)

@<TRIPOS>ATOM
      1 N1         -3.2006    0.3297    5.9031 N.am        1 V15      -0.1828
      2 C2         -2.1089    1.1189    5.7362 C.2         1 V15       0.2430
      3 C3         -4.1328    0.6263    6.8036 C.2         1 V15       0.1868
      4 C4         -4.0094    1.7452    7.5729 C.2         1 V15      -0.0134
      5 C5         -2.9147    2.5329    7.4497 C.2         1 V15      -0.0129
      6 N6         -1.9860    2.2241    6.5165 N.2         1 V15      -0.2880
      7 C8         -3.7831    2.0017   10.8426 C.ar        1 V15      -0.0601
      8 C9         -4.2675    0.7922   11.3759 C.ar        1 V15      -0.0686
      9 C10        -3.4122   -0.3178   11.4928 C.ar        1 V15      -0.0687
     10 C11        -2.0700   -0.2153   11.0889 C.ar        1 V15      -0.0686
     11 C12        -1.5937    0.9845   10.5293 C.ar        1 V15      -0.0601
     12 N14        -1.1901    0.8148    4.8082 N.pl3       1 V15      -0.2764
     13 C15        -2.6941    3.6767    8.3357 C.3         1 V15       0.0000
     14 C7         -2.4495    2.1033   10.3782 C.ar        1 V15      -0.0405
     15 C16        -1.9799    3.3376    9.6825 C.3         1 V15      -0.0061
     16 O15        -5.0944   -0.1153    6.9298 O.2         1 V15      -0.4228
     17 H1         -3.3223   -0.4393    5.3275 H           1 V15       0.2550
     18 H2         -4.7240    1.9633    8.2273 H           1 V15       0.0229
     19 H3         -4.4256    2.7916   10.7432 H           1 V15       0.0557
     20 H4         -5.2416    0.7199   11.6787 H           1 V15       0.0599
     21 H5         -3.7627   -1.1962   11.8820 H           1 V15       0.0559
     22 H6         -1.4413   -1.0144   11.1978 H           1 V15       0.0599
     23 H7         -0.6195    1.0303   10.2208 H           1 V15       0.0557
     24 H8         -0.4135    1.3807    4.6872 H           1 V15       0.1918
     25 H9         -1.3042    0.0273    4.2517 H           1 V15       0.1918
     26 H10        -3.6491    4.1641    8.5518 H           1 V15       0.0499
     27 H11        -2.0908    4.4254    7.8110 H           1 V15       0.0499
     28 H12        -2.1090    4.1790   10.3675 H           1 V15       0.0454
     29 H13        -0.9076    3.2684    9.4778 H           1 V15       0.0454
@<TRIPOS>BOND
     1     2     1  am
     2     3     1  am
     3     6     2   2
     4     2    12   1
     5     4     3   1
     6     3    16   2
     7     5     4   2
     8     5     6   1
     9    13     5   1
    10     7     8  ar
    11    14     7  ar
    12     8     9  ar
    13    10     9  ar
    14    11    10  ar
    15    14    11  ar
    16    15    13   1
    17    14    15   1
    18     1    17   1
    19     4    18   1
    20     7    19   1
    21     8    20   1
    22     9    21   1
    23    10    22   1
    24    11    23   1
    25    12    24   1
    26    12    25   1
    27    13    26   1
    28    13    27   1
    29    15    28   1
    30    15    29   1
@<TRIPOS>SUBSTRUCTURE
     1  V15      2

