@<TRIPOS>MOLECULE
2v00_ligand_044
    29    30
SMALL
GAST_HUCK
****
This file was generated by PARSER (from files_GN.cpp)

@<TRIPOS>ATOM
      1 N1          2.1909    4.8844    9.0973 N.am        1 V15      -0.1828
      2 C2          2.0154    6.1998    9.3845 C.2         1 V15       0.2430
      3 C3          1.2081    4.0071    9.2864 C.2         1 V15       0.1868
      4 C4         -0.0089    4.4151    9.7458 C.2         1 V15      -0.0134
      5 C5         -0.2300    5.7300    9.9779 C.2         1 V15      -0.0129
      6 N6          0.7957    6.5969    9.8277 N.2         1 V15      -0.2880
      7 C8         -3.6261    3.5355    8.7899 C.ar        1 V15      -0.0601
      8 C9         -3.7384    2.8231    7.5816 C.ar        1 V15      -0.0686
      9 C10        -3.2096    3.3623    6.3948 C.ar        1 V15      -0.0687
     10 C11        -2.6195    4.6397    6.4102 C.ar        1 V15      -0.0686
     11 C12        -2.5233    5.3568    7.6169 C.ar        1 V15      -0.0601
     12 N14         3.0025    7.0934    9.2322 N.pl3       1 V15      -0.2764
     13 C15        -1.5081    6.3036   10.3786 C.3         1 V15       0.0000
     14 C7         -2.9965    4.8035    8.8355 C.ar        1 V15      -0.0405
     15 C16        -2.8073    5.4742   10.1580 C.3         1 V15      -0.0061
     16 O15         1.4006    2.8313    9.0236 O.2         1 V15      -0.4228
     17 H1          3.0367    4.5639    8.7524 H           1 V15       0.2550
     18 H2         -0.7261    3.7402    9.8886 H           1 V15       0.0229
     19 H3         -4.0005    3.1123    9.6410 H           1 V15       0.0557
     20 H4         -4.1765    1.8994    7.5683 H           1 V15       0.0599
     21 H5         -3.2702    2.8360    5.5196 H           1 V15       0.0559
     22 H6         -2.2346    5.0340    5.5481 H           1 V15       0.0599
     23 H7         -2.0896    6.2816    7.5931 H           1 V15       0.0557
     24 H8          2.8501    8.0272    9.4401 H           1 V15       0.1918
     25 H9          3.8655    6.8104    8.8968 H           1 V15       0.1918
     26 H10        -1.6457    7.2600    9.8634 H           1 V15       0.0499
     27 H11        -1.4325    6.5309   11.4429 H           1 V15       0.0499
     28 H12        -3.6516    6.1389   10.3091 H           1 V15       0.0454
     29 H13        -2.8470    4.7282   10.9580 H           1 V15       0.0454
@<TRIPOS>BOND
     1     2     1  am
     2     3     1  am
     3     6     2   2
     4     2    12   1
     5     4     3   1
     6     3    16   2
     7     5     4   2
     8     5     6   1
     9    13     5   1
    10     7     8  ar
    11    14     7  ar
    12     8     9  ar
    13    10     9  ar
    14    11    10  ar
    15    14    11  ar
    16    15    13   1
    17    14    15   1
    18     1    17   1
    19     4    18   1
    20     7    19   1
    21     8    20   1
    22     9    21   1
    23    10    22   1
    24    11    23   1
    25    12    24   1
    26    12    25   1
    27    13    26   1
    28    13    27   1
    29    15    28   1
    30    15    29   1
@<TRIPOS>SUBSTRUCTURE
     1  V15      2

