@<TRIPOS>MOLECULE
2v00_ligand_028
    29    30
SMALL
GAST_HUCK
****
This file was generated by PARSER (from files_GN.cpp)

@<TRIPOS>ATOM
      1 N1         -1.8948    1.4722    5.7664 N.am        1 V15      -0.1828
      2 C2         -1.6071    0.3214    6.4307 C.2         1 V15       0.2430
      3 C3         -3.0922    2.0499    5.8800 C.2         1 V15       0.1868
      4 C4         -4.0647    1.4798    6.6590 C.2         1 V15      -0.0134
      5 C5         -3.8027    0.3234    7.3105 C.2         1 V15      -0.0129
      6 N6         -2.5848   -0.2344    7.1934 N.2         1 V15      -0.2880
      7 C8         -6.8757   -0.8850   10.4265 C.ar        1 V15      -0.0601
      8 C9         -7.6828   -1.7206   11.2125 C.ar        1 V15      -0.0686
      9 C10        -7.0957   -2.6187   12.1212 C.ar        1 V15      -0.0687
     10 C11        -5.6977   -2.6912   12.2297 C.ar        1 V15      -0.0686
     11 C12        -4.8843   -1.8614   11.4312 C.ar        1 V15      -0.0601
     12 N14        -0.3914   -0.2466    6.3692 N.pl3       1 V15      -0.2764
     13 C15        -4.7823   -0.3755    8.1336 C.3         1 V15       0.0000
     14 C7         -5.4624   -0.9502   10.5138 C.ar        1 V15      -0.0405
     15 C16        -4.6176   -0.0764    9.6503 C.3         1 V15      -0.0061
     16 O15        -3.2978    3.1113    5.3116 O.2         1 V15      -0.4228
     17 H1         -1.2096    1.8938    5.2250 H           1 V15       0.2550
     18 H2         -4.9491    1.9253    6.7480 H           1 V15       0.0229
     19 H3         -7.3237   -0.2326    9.7806 H           1 V15       0.0557
     20 H4         -8.7009   -1.6808   11.1169 H           1 V15       0.0599
     21 H5         -7.6898   -3.2171   12.7044 H           1 V15       0.0559
     22 H6         -5.2689   -3.3408   12.8944 H           1 V15       0.0599
     23 H7         -3.8691   -1.9309   11.5258 H           1 V15       0.0557
     24 H8         -0.1874   -1.0120    6.9352 H           1 V15       0.1918
     25 H9          0.3061    0.1487    5.8196 H           1 V15       0.1918
     26 H10        -4.6852   -1.4517    7.9548 H           1 V15       0.0499
     27 H11        -5.7949   -0.0954    7.8287 H           1 V15       0.0499
     28 H12        -4.8937    0.9674    9.8288 H           1 V15       0.0454
     29 H13        -3.5653   -0.1844    9.9335 H           1 V15       0.0454
@<TRIPOS>BOND
     1     2     1  am
     2     3     1  am
     3     6     2   2
     4     2    12   1
     5     4     3   1
     6     3    16   2
     7     5     4   2
     8     5     6   1
     9    13     5   1
    10     7     8  ar
    11    14     7  ar
    12     8     9  ar
    13    10     9  ar
    14    11    10  ar
    15    14    11  ar
    16    15    13   1
    17    14    15   1
    18     1    17   1
    19     4    18   1
    20     7    19   1
    21     8    20   1
    22     9    21   1
    23    10    22   1
    24    11    23   1
    25    12    24   1
    26    12    25   1
    27    13    26   1
    28    13    27   1
    29    15    28   1
    30    15    29   1
@<TRIPOS>SUBSTRUCTURE
     1  V15      2

