@<TRIPOS>MOLECULE
2v7a_ligand_076
    66    70
SMALL
GAST_HUCK
****
This file was generated by PARSER (from files_GN.cpp)

@<TRIPOS>ATOM
      1 N1        -41.7217  -50.0139  -12.2452 N.am        1 MOL      -0.2534
      2 N2        -41.1389  -53.1304  -13.9243 N.pl3       1 MOL      -0.2433
      3 C3        -43.0795  -53.3340  -12.9802 C.2         1 MOL       0.1027
      4 N4        -42.1330  -53.9400  -13.7312 N.2         1 MOL      -0.2404
      5 N5        -44.2576  -53.8614  -12.5715 N.am        1 MOL      -0.2391
      6 C6        -44.6774  -55.1120  -12.7602 C.2         1 MOL       0.2181
      7 C7        -45.9507  -55.5135  -12.3454 C.ar        1 MOL       0.0412
      8 O8        -43.9383  -55.9520  -13.2591 O.2         1 MOL      -0.3816
      9 C9        -47.0397  -54.6141  -12.3519 C.ar        1 MOL      -0.0531
     10 C10       -48.3285  -55.0396  -11.9755 C.ar        1 MOL      -0.0381
     11 C11       -47.4748  -57.2567  -11.5238 C.ar        1 MOL      -0.0381
     12 C12       -46.1899  -56.8434  -11.9285 C.ar        1 MOL      -0.0531
     13 C13       -41.3936  -51.9728  -13.3082 C.2         1 MOL       0.0786
     14 C14       -42.6074  -52.0574  -12.6962 C.2         1 MOL       0.0146
     15 C15       -42.9051  -50.8169  -11.9845 C.3         1 MOL       0.0514
     16 C16       -40.7574  -50.6933  -13.0868 C.3         1 MOL       0.0897
     17 N17       -49.8386  -56.7874  -11.2115 N.pl3       1 MOL      -0.2958
     18 C18       -51.0266  -56.3133  -11.8925 C.3         1 MOL       0.0680
     19 C19       -52.0316  -55.6941  -10.8894 C.3         1 MOL      -0.0118
     20 N20       -52.3088  -56.6393   -9.7640 N.4         1 MOL       0.2359
     21 C21       -51.0483  -57.1064   -9.1050 C.3         1 MOL      -0.0118
     22 C22       -50.0751  -57.7355  -10.1408 C.3         1 MOL       0.0680
     23 C23       -53.2966  -56.0905   -8.7906 C.3         1 MOL      -0.0430
     24 C24       -48.5742  -56.3678  -11.5569 C.ar        1 MOL       0.0460
     25 C25       -41.4898  -48.7841  -11.7548 C.2         1 MOL       0.2222
     26 O26       -40.4236  -48.2460  -12.0432 O.2         1 MOL      -0.3907
     27 C27       -41.8277  -45.6609  -11.3751 C.ar        1 MOL      -0.0555
     28 C28       -41.3779  -44.3820  -10.9970 C.ar        1 MOL      -0.0680
     29 C29       -41.9361  -46.7042  -10.4255 C.ar        1 MOL       0.0044
     30 C31       -41.0430  -44.1240   -9.6559 C.ar        1 MOL      -0.0684
     31 C33       -41.5997  -46.4261   -9.0761 C.ar        1 MOL      -0.0555
     32 C20       -42.4008  -48.0688  -10.8489 C.3         1 MOL       0.1804
     33 C35       -41.1595  -45.1451   -8.6957 C.ar        1 MOL      -0.0680
     34 C36       -44.8201  -47.7168  -10.6337 C.3         1 MOL       0.0424
     35 O34       -43.6902  -47.9494  -11.4951 O.3         1 MOL      -0.3473
     36 H1        -40.3345  -53.3392  -14.4224 H           1 MOL       0.2389
     37 H2        -44.8475  -53.2670  -12.0830 H           1 MOL       0.2188
     38 H3        -46.9172  -53.6455  -12.6567 H           1 MOL       0.0636
     39 H4        -49.0731  -54.3387  -11.9655 H           1 MOL       0.0530
     40 H5        -47.6028  -58.2403  -11.2714 H           1 MOL       0.0530
     41 H6        -45.4315  -57.5307  -11.9079 H           1 MOL       0.0636
     42 H7        -43.8111  -50.3602  -12.3927 H           1 MOL       0.0576
     43 H8        -43.0278  -51.0193  -10.9172 H           1 MOL       0.0576
     44 H9        -39.8040  -50.8330  -12.5719 H           1 MOL       0.0708
     45 H10       -40.6082  -50.1742  -14.0367 H           1 MOL       0.0708
     46 H11       -51.5050  -57.1713  -12.3735 H           1 MOL       0.0569
     47 H12       -50.8205  -55.6014  -12.6920 H           1 MOL       0.0569
     48 H13       -52.9570  -55.4751  -11.4295 H           1 MOL       0.0834
     49 H14       -51.6272  -54.7487  -10.5108 H           1 MOL       0.0834
     50 H15       -52.7425  -57.4667  -10.1798 H           1 MOL       0.2032
     51 H16       -51.2751  -57.8623   -8.3485 H           1 MOL       0.0834
     52 H17       -50.5484  -56.2692   -8.6091 H           1 MOL       0.0834
     53 H18       -49.1674  -58.0204   -9.6007 H           1 MOL       0.0569
     54 H19       -50.5133  -58.6505  -10.5513 H           1 MOL       0.0569
     55 H20       -54.2368  -55.8548   -9.2938 H           1 MOL       0.0778
     56 H21       -52.9222  -55.1810   -8.3119 H           1 MOL       0.0778
     57 H22       -53.5178  -56.8248   -8.0131 H           1 MOL       0.0778
     58 H23       -42.0725  -45.8259  -12.3542 H           1 MOL       0.0562
     59 H24       -41.2962  -43.6394  -11.6965 H           1 MOL       0.0600
     60 H25       -40.7251  -43.1929   -9.3789 H           1 MOL       0.0561
     61 H26       -41.6738  -47.1552   -8.3633 H           1 MOL       0.0562
     62 H27       -42.4945  -48.7143   -9.9671 H           1 MOL       0.1000
     63 H28       -40.9265  -44.9537   -7.7179 H           1 MOL       0.0600
     64 H29       -45.7170  -47.6704  -11.2472 H           1 MOL       0.0528
     65 H30       -44.7178  -46.7733  -10.0971 H           1 MOL       0.0528
     66 H31       -44.9372  -48.5326   -9.9201 H           1 MOL       0.0528
@<TRIPOS>BOND
     1     1    15   1
     2     1    16   1
     3    25     1  am
     4     2     4   1
     5    13     2   1
     6     3     4   2
     7     3     5   1
     8    14     3   1
     9     5     6  am
    10     6     7   1
    11     6     8   2
    12     7     9  ar
    13     7    12  ar
    14     9    10  ar
    15    10    24  ar
    16    12    11  ar
    17    11    24  ar
    18    13    14   2
    19    16    13   1
    20    15    14   1
    21    17    18   1
    22    17    22   1
    23    24    17   1
    24    18    19   1
    25    19    20   1
    26    21    20   1
    27    20    23   1
    28    22    21   1
    29    25    26   2
    30    32    25   1
    31    27    28  ar
    32    29    27  ar
    33    28    30  ar
    34    29    31  ar
    35    29    32   1
    36    30    33  ar
    37    31    33  ar
    38    32    35   1
    39    35    34   1
    40     2    36   1
    41     5    37   1
    42     9    38   1
    43    10    39   1
    44    11    40   1
    45    12    41   1
    46    15    42   1
    47    15    43   1
    48    16    44   1
    49    16    45   1
    50    18    46   1
    51    18    47   1
    52    19    48   1
    53    19    49   1
    54    20    50   1
    55    21    51   1
    56    21    52   1
    57    22    53   1
    58    22    54   1
    59    23    55   1
    60    23    56   1
    61    23    57   1
    62    27    58   1
    63    28    59   1
    64    30    60   1
    65    31    61   1
    66    32    62   1
    67    33    63   1
    68    34    64   1
    69    34    65   1
    70    34    66   1
@<TRIPOS>SUBSTRUCTURE
     1  MOL      3

