@<TRIPOS>MOLECULE
2v7a_ligand_050
    66    70
SMALL
GAST_HUCK
****
This file was generated by PARSER (from files_GN.cpp)

@<TRIPOS>ATOM
      1 N1        -45.2319  -42.8664   -2.9199 N.am        1 MOL      -0.2534
      2 N2        -45.3569  -44.4120    0.3241 N.pl3       1 MOL      -0.2433
      3 C3        -46.0990  -45.9189   -1.0415 C.2         1 MOL       0.1027
      4 N4        -45.7989  -45.6304    0.2381 N.2         1 MOL      -0.2404
      5 N5        -46.5757  -47.1472   -1.3440 N.am        1 MOL      -0.2391
      6 C6        -46.8863  -47.6930   -2.5160 C.2         1 MOL       0.2181
      7 C7        -47.4043  -49.0012   -2.6001 C.ar        1 MOL       0.0412
      8 O8        -46.6763  -47.0575   -3.5410 O.2         1 MOL      -0.3816
      9 C9        -47.3960  -49.7253   -3.8171 C.ar        1 MOL      -0.0531
     10 C10       -47.8764  -51.0500   -3.8931 C.ar        1 MOL      -0.0381
     11 C11       -48.4065  -50.9916   -1.5448 C.ar        1 MOL      -0.0381
     12 C12       -47.9389  -49.6669   -1.4694 C.ar        1 MOL      -0.0531
     13 C13       -45.3398  -43.8612   -0.8947 C.2         1 MOL       0.0786
     14 C14       -45.8026  -44.7744   -1.7918 C.2         1 MOL       0.0146
     15 C15       -45.7898  -44.1902   -3.1361 C.3         1 MOL       0.0514
     16 C16       -45.0035  -42.5992   -1.5186 C.3         1 MOL       0.0897
     17 N17       -48.8225  -53.0386   -2.8139 N.pl3       1 MOL      -0.2958
     18 C18       -48.6195  -53.9832   -1.7288 C.3         1 MOL       0.0680
     19 C19       -47.8045  -55.2054   -2.2443 C.3         1 MOL      -0.0118
     20 N20       -48.3932  -55.8355   -3.4663 N.4         1 MOL       0.2359
     21 C21       -48.6881  -54.8161   -4.5241 C.3         1 MOL      -0.0118
     22 C22       -49.4811  -53.5977   -3.9822 C.3         1 MOL       0.0680
     23 C23       -49.5341  -56.7553   -3.1744 C.3         1 MOL      -0.0430
     24 C24       -48.3811  -51.7257   -2.7546 C.ar        1 MOL       0.0460
     25 C25       -44.9408  -42.0252   -3.9437 C.2         1 MOL       0.2222
     26 O26       -44.8285  -42.5108   -5.0651 O.2         1 MOL      -0.3907
     27 C27       -44.6438  -38.2820   -4.8767 C.ar        1 MOL      -0.0555
     28 C28       -44.9377  -37.3765   -5.9157 C.ar        1 MOL      -0.0680
     29 C29       -44.9407  -39.6736   -4.9865 C.ar        1 MOL       0.0044
     30 C31       -45.5218  -37.8391   -7.1045 C.ar        1 MOL      -0.0684
     31 C33       -45.5932  -40.1056   -6.1790 C.ar        1 MOL      -0.0555
     32 C20       -44.5693  -40.5961   -3.8480 C.3         1 MOL       0.1804
     33 C35       -45.8490  -39.2047   -7.2367 C.ar        1 MOL      -0.0680
     34 C36       -44.3535  -39.2835   -1.7376 C.3         1 MOL       0.0424
     35 O34       -45.1667  -40.0077   -2.6750 O.3         1 MOL      -0.3473
     36 H1        -45.0565  -43.9821    1.1364 H           1 MOL       0.2389
     37 H2        -46.6861  -47.7174   -0.5716 H           1 MOL       0.2188
     38 H3        -47.0081  -49.3093   -4.6701 H           1 MOL       0.0636
     39 H4        -47.7823  -51.5309   -4.7839 H           1 MOL       0.0530
     40 H5        -48.8189  -51.3912   -0.6986 H           1 MOL       0.0530
     41 H6        -48.0172  -49.1924   -0.5663 H           1 MOL       0.0636
     42 H7        -45.1663  -44.7858   -3.8015 H           1 MOL       0.0576
     43 H8        -46.8040  -44.1352   -3.5268 H           1 MOL       0.0576
     44 H9        -45.6748  -41.8390   -1.1121 H           1 MOL       0.0708
     45 H10       -43.9552  -42.3521   -1.3227 H           1 MOL       0.0708
     46 H11       -49.5861  -54.3161   -1.3444 H           1 MOL       0.0569
     47 H12       -48.0620  -53.5713   -0.8843 H           1 MOL       0.0569
     48 H13       -47.6972  -55.9412   -1.4418 H           1 MOL       0.0834
     49 H14       -46.7952  -54.8682   -2.4948 H           1 MOL       0.0834
     50 H15       -47.6602  -56.4331   -3.8601 H           1 MOL       0.2032
     51 H16       -49.2351  -55.2674   -5.3571 H           1 MOL       0.0834
     52 H17       -47.7359  -54.4580   -4.9287 H           1 MOL       0.0834
     53 H18       -49.6357  -52.8829   -4.7903 H           1 MOL       0.0569
     54 H19       -50.4823  -53.9278   -3.6903 H           1 MOL       0.0569
     55 H20       -49.8655  -57.2531   -4.0880 H           1 MOL       0.0778
     56 H21       -50.3839  -56.2249   -2.7404 H           1 MOL       0.0778
     57 H22       -49.2175  -57.5340   -2.4766 H           1 MOL       0.0778
     58 H23       -44.1989  -37.9140   -4.0315 H           1 MOL       0.0562
     59 H24       -44.7011  -36.3842   -5.8041 H           1 MOL       0.0600
     60 H25       -45.7184  -37.1869   -7.8704 H           1 MOL       0.0561
     61 H26       -45.8922  -41.0846   -6.2895 H           1 MOL       0.0562
     62 H27       -43.4767  -40.5952   -3.7821 H           1 MOL       0.1000
     63 H28       -46.3064  -39.5382   -8.0935 H           1 MOL       0.0600
     64 H29       -44.9186  -39.1973   -0.8066 H           1 MOL       0.0528
     65 H30       -44.1413  -38.2801   -2.1122 H           1 MOL       0.0528
     66 H31       -43.4165  -39.8006   -1.5278 H           1 MOL       0.0528
@<TRIPOS>BOND
     1     1    15   1
     2     1    16   1
     3    25     1  am
     4     2     4   1
     5    13     2   1
     6     3     4   2
     7     3     5   1
     8    14     3   1
     9     5     6  am
    10     6     7   1
    11     6     8   2
    12     7     9  ar
    13     7    12  ar
    14     9    10  ar
    15    10    24  ar
    16    12    11  ar
    17    11    24  ar
    18    13    14   2
    19    16    13   1
    20    15    14   1
    21    17    18   1
    22    17    22   1
    23    24    17   1
    24    18    19   1
    25    19    20   1
    26    21    20   1
    27    20    23   1
    28    22    21   1
    29    25    26   2
    30    32    25   1
    31    27    28  ar
    32    29    27  ar
    33    28    30  ar
    34    29    31  ar
    35    29    32   1
    36    30    33  ar
    37    31    33  ar
    38    32    35   1
    39    35    34   1
    40     2    36   1
    41     5    37   1
    42     9    38   1
    43    10    39   1
    44    11    40   1
    45    12    41   1
    46    15    42   1
    47    15    43   1
    48    16    44   1
    49    16    45   1
    50    18    46   1
    51    18    47   1
    52    19    48   1
    53    19    49   1
    54    20    50   1
    55    21    51   1
    56    21    52   1
    57    22    53   1
    58    22    54   1
    59    23    55   1
    60    23    56   1
    61    23    57   1
    62    27    58   1
    63    28    59   1
    64    30    60   1
    65    31    61   1
    66    32    62   1
    67    33    63   1
    68    34    64   1
    69    34    65   1
    70    34    66   1
@<TRIPOS>SUBSTRUCTURE
     1  MOL      3

