@<TRIPOS>MOLECULE
2v7a_ligand_031
    66    70
SMALL
GAST_HUCK
****
This file was generated by PARSER (from files_GN.cpp)

@<TRIPOS>ATOM
      1 N1        -49.6536  -44.1965   -0.8025 N.am        1 MOL      -0.2534
      2 N2        -53.0835  -45.2656   -0.8054 N.pl3       1 MOL      -0.2433
      3 C3        -51.9147  -47.0314   -1.2995 C.2         1 MOL       0.1027
      4 N4        -53.1546  -46.5263   -1.1090 N.2         1 MOL      -0.2404
      5 N5        -51.5932  -48.2990   -1.6393 N.am        1 MOL      -0.2391
      6 C6        -52.4297  -49.2968   -1.9187 C.2         1 MOL       0.2181
      7 C7        -51.9841  -50.5749   -2.2542 C.ar        1 MOL       0.0412
      8 O8        -53.6427  -49.1086   -1.9162 O.2         1 MOL      -0.3816
      9 C9        -50.7807  -51.1071   -1.7307 C.ar        1 MOL      -0.0531
     10 C10       -50.3698  -52.4165   -2.0342 C.ar        1 MOL      -0.0381
     11 C11       -52.3149  -52.7089   -3.4387 C.ar        1 MOL      -0.0381
     12 C12       -52.7415  -51.4133   -3.1134 C.ar        1 MOL      -0.0531
     13 C13       -51.7985  -44.8974   -0.7881 C.2         1 MOL       0.0786
     14 C14       -51.0319  -45.9823   -1.0907 C.2         1 MOL       0.0146
     15 C15       -49.6151  -45.6189   -1.0979 C.3         1 MOL       0.0514
     16 C16       -50.9970  -43.7122   -0.5776 C.3         1 MOL       0.0897
     17 N17       -50.7328  -54.5425   -3.2028 N.pl3       1 MOL      -0.2958
     18 C18       -50.6852  -55.0328   -4.5755 C.3         1 MOL       0.0680
     19 C19       -49.2725  -55.6056   -4.8752 C.3         1 MOL      -0.0118
     20 N20       -48.8372  -56.6306   -3.8738 N.4         1 MOL       0.2359
     21 C21       -48.9520  -56.1009   -2.4783 C.3         1 MOL      -0.0118
     22 C22       -50.3531  -55.5080   -2.1802 C.3         1 MOL       0.0680
     23 C23       -49.4661  -57.9715   -4.0718 C.3         1 MOL      -0.0430
     24 C24       -51.1188  -53.2600   -2.9011 C.ar        1 MOL       0.0460
     25 C25       -48.5989  -43.3590   -0.7475 C.2         1 MOL       0.2222
     26 O26       -48.8070  -42.1577   -0.5878 O.2         1 MOL      -0.3907
     27 C27       -44.9734  -42.8910   -1.7694 C.ar        1 MOL      -0.0555
     28 C28       -43.9502  -41.9245   -1.7985 C.ar        1 MOL      -0.0680
     29 C29       -46.1217  -42.7320   -0.9422 C.ar        1 MOL       0.0044
     30 C31       -44.0704  -40.7493   -1.0322 C.ar        1 MOL      -0.0684
     31 C33       -46.1963  -41.5553   -0.1553 C.ar        1 MOL      -0.0555
     32 C20       -47.1970  -43.7905   -0.9160 C.3         1 MOL       0.1804
     33 C35       -45.2031  -40.5617   -0.2198 C.ar        1 MOL      -0.0680
     34 C36       -46.5302  -44.5834    1.3570 C.3         1 MOL       0.0424
     35 O34       -46.7924  -44.8687   -0.0341 O.3         1 MOL      -0.3473
     36 H1        -53.8371  -44.6816   -0.6285 H           1 MOL       0.2389
     37 H2        -50.6493  -48.4876   -1.7096 H           1 MOL       0.2188
     38 H3        -50.1992  -50.5529   -1.0987 H           1 MOL       0.0636
     39 H4        -49.4734  -52.7319   -1.6524 H           1 MOL       0.0530
     40 H5        -52.9271  -53.2725   -4.0398 H           1 MOL       0.0530
     41 H6        -53.6228  -51.0925   -3.5238 H           1 MOL       0.0636
     42 H7        -49.0819  -46.1845   -0.3317 H           1 MOL       0.0576
     43 H8        -49.1774  -45.8077   -2.0798 H           1 MOL       0.0576
     44 H9        -51.2793  -42.9450   -1.3000 H           1 MOL       0.0708
     45 H10       -51.1305  -43.3396    0.4393 H           1 MOL       0.0708
     46 H11       -50.8715  -54.2532   -5.3201 H           1 MOL       0.0569
     47 H12       -51.4441  -55.8049   -4.7147 H           1 MOL       0.0569
     48 H13       -48.5480  -54.7814   -4.8590 H           1 MOL       0.0834
     49 H14       -49.2531  -56.0138   -5.8912 H           1 MOL       0.0834
     50 H15       -47.8409  -56.7915   -4.0293 H           1 MOL       0.2032
     51 H16       -48.2014  -55.3156   -2.3359 H           1 MOL       0.0834
     52 H17       -48.7319  -56.8831   -1.7489 H           1 MOL       0.0834
     53 H18       -51.0903  -56.3125   -2.1820 H           1 MOL       0.0569
     54 H19       -50.3642  -55.0966   -1.1668 H           1 MOL       0.0569
     55 H20       -49.2693  -58.3370   -5.0809 H           1 MOL       0.0778
     56 H21       -50.5455  -57.9452   -3.9212 H           1 MOL       0.0778
     57 H22       -49.0395  -58.6950   -3.3769 H           1 MOL       0.0778
     58 H23       -44.8636  -43.7185   -2.3603 H           1 MOL       0.0562
     59 H24       -43.1194  -42.0531   -2.3734 H           1 MOL       0.0600
     60 H25       -43.3480  -40.0281   -1.0690 H           1 MOL       0.0561
     61 H26       -46.9906  -41.4123    0.4637 H           1 MOL       0.0562
     62 H27       -47.1904  -44.2657   -1.9029 H           1 MOL       0.1000
     63 H28       -45.3212  -39.7022    0.3174 H           1 MOL       0.0600
     64 H29       -46.2963  -45.5313    1.8578 H           1 MOL       0.0528
     65 H30       -47.4107  -44.1405    1.8411 H           1 MOL       0.0528
     66 H31       -45.6614  -43.9176    1.4731 H           1 MOL       0.0528
@<TRIPOS>BOND
     1     1    15   1
     2     1    16   1
     3    25     1  am
     4     2     4   1
     5    13     2   1
     6     3     4   2
     7     3     5   1
     8    14     3   1
     9     5     6  am
    10     6     7   1
    11     6     8   2
    12     7     9  ar
    13     7    12  ar
    14     9    10  ar
    15    10    24  ar
    16    12    11  ar
    17    11    24  ar
    18    13    14   2
    19    16    13   1
    20    15    14   1
    21    17    18   1
    22    17    22   1
    23    24    17   1
    24    18    19   1
    25    19    20   1
    26    21    20   1
    27    20    23   1
    28    22    21   1
    29    25    26   2
    30    32    25   1
    31    27    28  ar
    32    29    27  ar
    33    28    30  ar
    34    29    31  ar
    35    29    32   1
    36    30    33  ar
    37    31    33  ar
    38    32    35   1
    39    35    34   1
    40     2    36   1
    41     5    37   1
    42     9    38   1
    43    10    39   1
    44    11    40   1
    45    12    41   1
    46    15    42   1
    47    15    43   1
    48    16    44   1
    49    16    45   1
    50    18    46   1
    51    18    47   1
    52    19    48   1
    53    19    49   1
    54    20    50   1
    55    21    51   1
    56    21    52   1
    57    22    53   1
    58    22    54   1
    59    23    55   1
    60    23    56   1
    61    23    57   1
    62    27    58   1
    63    28    59   1
    64    30    60   1
    65    31    61   1
    66    32    62   1
    67    33    63   1
    68    34    64   1
    69    34    65   1
    70    34    66   1
@<TRIPOS>SUBSTRUCTURE
     1  MOL      3

