@<TRIPOS>MOLECULE
2v7a_ligand_012
    66    70
SMALL
GAST_HUCK
****
This file was generated by PARSER (from files_GN.cpp)

@<TRIPOS>ATOM
      1 N1        -49.1299  -43.6158    0.5638 N.am        1 MOL      -0.2534
      2 N2        -45.7674  -44.8168    0.8214 N.pl3       1 MOL      -0.2433
      3 C3        -46.9017  -46.4881    0.0329 C.2         1 MOL       0.1027
      4 N4        -45.6855  -46.0513    0.4360 N.2         1 MOL      -0.2404
      5 N5        -47.0342  -47.7461   -0.4443 N.am        1 MOL      -0.2391
      6 C6        -48.1113  -48.4032   -0.8693 C.2         1 MOL       0.2181
      7 C7        -47.9887  -49.6990   -1.3908 C.ar        1 MOL       0.0412
      8 O8        -49.2225  -47.8995   -0.7693 O.2         1 MOL      -0.3816
      9 C9        -49.0463  -50.6439   -1.2907 C.ar        1 MOL      -0.0531
     10 C10       -48.8976  -51.9601   -1.7687 C.ar        1 MOL      -0.0381
     11 C11       -46.6685  -51.4195   -2.5616 C.ar        1 MOL      -0.0381
     12 C12       -46.7979  -50.1206   -2.0370 C.ar        1 MOL      -0.0531
     13 C13       -47.0246  -44.3975    0.6823 C.2         1 MOL       0.0786
     14 C14       -47.7879  -45.4297    0.2236 C.2         1 MOL       0.0146
     15 C15       -49.1797  -45.0013    0.1324 C.3         1 MOL       0.0514
     16 C16       -47.7915  -43.1914    0.9038 C.3         1 MOL       0.0897
     17 N17       -47.5643  -53.6237   -2.8977 N.pl3       1 MOL      -0.2958
     18 C18       -47.0899  -54.6983   -2.0620 C.3         1 MOL       0.0680
     19 C19       -48.1123  -55.8607   -2.0476 C.3         1 MOL      -0.0118
     20 N20       -48.5084  -56.2545   -3.4365 N.4         1 MOL       0.2359
     21 C21       -48.9755  -55.0880   -4.2502 C.3         1 MOL      -0.0118
     22 C22       -47.9194  -53.9489   -4.2581 C.3         1 MOL       0.0680
     23 C23       -49.4803  -57.3867   -3.4397 C.3         1 MOL      -0.0430
     24 C24       -47.7096  -52.3600   -2.4172 C.ar        1 MOL       0.0460
     25 C25       -50.2274  -42.8426    0.6542 C.2         1 MOL       0.2222
     26 O26       -51.3101  -43.3574    0.3943 O.2         1 MOL      -0.3907
     27 C27       -48.2462  -39.9526    1.5719 C.ar        1 MOL      -0.0555
     28 C28       -47.2146  -39.5927    2.4668 C.ar        1 MOL      -0.0680
     29 C29       -49.2034  -40.9437    1.9190 C.ar        1 MOL       0.0044
     30 C31       -47.1350  -40.2050    3.7263 C.ar        1 MOL      -0.0684
     31 C33       -49.0945  -41.5537    3.1885 C.ar        1 MOL      -0.0555
     32 C20       -50.2693  -41.4029    0.9691 C.3         1 MOL       0.1804
     33 C35       -48.0681  -41.1951    4.0840 C.ar        1 MOL      -0.0680
     34 C36       -51.3725  -40.8214   -1.1637 C.3         1 MOL       0.0424
     35 O34       -50.2601  -40.6469   -0.2633 O.3         1 MOL      -0.3473
     36 H1        -45.0340  -44.2900    1.1762 H           1 MOL       0.2389
     37 H2        -46.2027  -48.2406   -0.4853 H           1 MOL       0.2188
     38 H3        -49.9314  -50.3877   -0.8439 H           1 MOL       0.0636
     39 H4        -49.6746  -52.6204   -1.6719 H           1 MOL       0.0530
     40 H5        -45.7966  -51.6897   -3.0208 H           1 MOL       0.0530
     41 H6        -46.0089  -49.4792   -2.1519 H           1 MOL       0.0636
     42 H7        -49.5388  -45.0884   -0.8974 H           1 MOL       0.0576
     43 H8        -49.7895  -45.6090    0.8064 H           1 MOL       0.0576
     44 H9        -47.6980  -42.9034    1.9563 H           1 MOL       0.0708
     45 H10       -47.4342  -42.3990    0.2383 H           1 MOL       0.0708
     46 H11       -46.8971  -54.3739   -1.0356 H           1 MOL       0.0569
     47 H12       -46.1435  -55.0641   -2.4718 H           1 MOL       0.0569
     48 H13       -48.9915  -55.5509   -1.4758 H           1 MOL       0.0834
     49 H14       -47.6565  -56.7138   -1.5384 H           1 MOL       0.0834
     50 H15       -47.6651  -56.6020   -3.8978 H           1 MOL       0.2032
     51 H16       -49.9186  -54.6999   -3.8491 H           1 MOL       0.0834
     52 H17       -49.1509  -55.4029   -5.2838 H           1 MOL       0.0834
     53 H18       -47.0274  -54.2855   -4.7903 H           1 MOL       0.0569
     54 H19       -48.3264  -53.0922   -4.8031 H           1 MOL       0.0569
     55 H20       -49.6939  -57.7055   -4.4628 H           1 MOL       0.0778
     56 H21       -50.4211  -57.1036   -2.9583 H           1 MOL       0.0778
     57 H22       -49.0625  -58.2461   -2.9094 H           1 MOL       0.0778
     58 H23       -48.2552  -39.5145    0.6517 H           1 MOL       0.0562
     59 H24       -46.5120  -38.9017    2.1874 H           1 MOL       0.0600
     60 H25       -46.3855  -39.9413    4.3778 H           1 MOL       0.0561
     61 H26       -49.7540  -42.2740    3.4789 H           1 MOL       0.0562
     62 H27       -51.2078  -41.1702    1.4870 H           1 MOL       0.1000
     63 H28       -47.9920  -41.6598    4.9861 H           1 MOL       0.0600
     64 H29       -51.3038  -40.0772   -1.9581 H           1 MOL       0.0528
     65 H30       -52.3233  -40.6696   -0.6484 H           1 MOL       0.0528
     66 H31       -51.3560  -41.8149   -1.6156 H           1 MOL       0.0528
@<TRIPOS>BOND
     1     1    15   1
     2     1    16   1
     3    25     1  am
     4     2     4   1
     5    13     2   1
     6     3     4   2
     7     3     5   1
     8    14     3   1
     9     5     6  am
    10     6     7   1
    11     6     8   2
    12     7     9  ar
    13     7    12  ar
    14     9    10  ar
    15    10    24  ar
    16    12    11  ar
    17    11    24  ar
    18    13    14   2
    19    16    13   1
    20    15    14   1
    21    17    18   1
    22    17    22   1
    23    24    17   1
    24    18    19   1
    25    19    20   1
    26    21    20   1
    27    20    23   1
    28    22    21   1
    29    25    26   2
    30    32    25   1
    31    27    28  ar
    32    29    27  ar
    33    28    30  ar
    34    29    31  ar
    35    29    32   1
    36    30    33  ar
    37    31    33  ar
    38    32    35   1
    39    35    34   1
    40     2    36   1
    41     5    37   1
    42     9    38   1
    43    10    39   1
    44    11    40   1
    45    12    41   1
    46    15    42   1
    47    15    43   1
    48    16    44   1
    49    16    45   1
    50    18    46   1
    51    18    47   1
    52    19    48   1
    53    19    49   1
    54    20    50   1
    55    21    51   1
    56    21    52   1
    57    22    53   1
    58    22    54   1
    59    23    55   1
    60    23    56   1
    61    23    57   1
    62    27    58   1
    63    28    59   1
    64    30    60   1
    65    31    61   1
    66    32    62   1
    67    33    63   1
    68    34    64   1
    69    34    65   1
    70    34    66   1
@<TRIPOS>SUBSTRUCTURE
     1  MOL      3

