@<TRIPOS>MOLECULE
2v7a_ligand_056
    66    70
SMALL
GAST_HUCK
****
This file was generated by PARSER (from files_GN.cpp)

@<TRIPOS>ATOM
      1 N1        -44.8326  -42.1893   -1.3364 N.am        1 MOL      -0.2534
      2 N2        -47.9393  -41.9340    0.4366 N.pl3       1 MOL      -0.2433
      3 C3        -47.9658  -43.8839   -0.5158 C.2         1 MOL       0.1027
      4 N4        -48.6443  -43.0089    0.2551 N.2         1 MOL      -0.2404
      5 N5        -48.5125  -45.0766   -0.8252 N.am        1 MOL      -0.2391
      6 C6        -48.0450  -46.0953   -1.5395 C.2         1 MOL       0.2181
      7 C7        -48.8018  -47.2652   -1.6920 C.ar        1 MOL       0.0412
      8 O8        -46.9470  -46.0147   -2.0807 O.2         1 MOL      -0.3816
      9 C9        -48.4795  -48.2340   -2.6804 C.ar        1 MOL      -0.0531
     10 C10       -49.2477  -49.3988   -2.8441 C.ar        1 MOL      -0.0381
     11 C11       -50.6918  -48.7042   -1.0359 C.ar        1 MOL      -0.0381
     12 C12       -49.9201  -47.5488   -0.8639 C.ar        1 MOL      -0.0531
     13 C13       -46.7740  -42.0645   -0.2068 C.2         1 MOL       0.0786
     14 C14       -46.7507  -43.2792   -0.8230 C.2         1 MOL       0.0146
     15 C15       -45.5041  -43.4566   -1.5487 C.3         1 MOL       0.0514
     16 C16       -45.5692  -41.2981   -0.4649 C.3         1 MOL       0.0897
     17 N17       -51.1584  -50.7840   -2.2069 N.pl3       1 MOL      -0.2958
     18 C18       -52.6089  -50.7464   -2.2783 C.3         1 MOL       0.0680
     19 C19       -53.2264  -51.5718   -1.1252 C.3         1 MOL      -0.0118
     20 N20       -52.6754  -52.9626   -1.1269 N.4         1 MOL       0.2359
     21 C21       -51.1797  -52.9777   -1.1115 C.3         1 MOL      -0.0118
     22 C22       -50.5874  -52.1192   -2.2609 C.3         1 MOL       0.0680
     23 C23       -53.2681  -53.8001   -0.0483 C.3         1 MOL      -0.0430
     24 C24       -50.3874  -49.6633   -2.0370 C.ar        1 MOL       0.0460
     25 C25       -43.6531  -41.9086   -1.9155 C.2         1 MOL       0.2222
     26 O26       -43.0991  -42.7878   -2.5597 O.2         1 MOL      -0.3907
     27 C27       -44.2512  -38.4351   -1.7412 C.ar        1 MOL      -0.0555
     28 C28       -44.9682  -37.4004   -2.3662 C.ar        1 MOL      -0.0680
     29 C29       -43.7285  -39.5231   -2.4878 C.ar        1 MOL       0.0044
     30 C31       -45.1824  -37.4352   -3.7559 C.ar        1 MOL      -0.0684
     31 C33       -43.9262  -39.5181   -3.8916 C.ar        1 MOL      -0.0555
     32 C20       -42.9374  -40.6273   -1.8607 C.3         1 MOL       0.1804
     33 C35       -44.6557  -38.4904   -4.5204 C.ar        1 MOL      -0.0680
     34 C36       -41.3190  -40.9600   -0.0522 C.3         1 MOL       0.0424
     35 O34       -42.5370  -40.3428   -0.5021 O.3         1 MOL      -0.3473
     36 H1        -48.2201  -41.1585    0.9476 H           1 MOL       0.2389
     37 H2        -49.3978  -45.1991   -0.4605 H           1 MOL       0.2188
     38 H3        -47.6887  -48.0901   -3.3162 H           1 MOL       0.0636
     39 H4        -48.9896  -50.0371   -3.6030 H           1 MOL       0.0530
     40 H5        -51.4542  -48.8705   -0.3727 H           1 MOL       0.0530
     41 H6        -50.1863  -46.9208   -0.1006 H           1 MOL       0.0636
     42 H7        -44.9339  -44.2896   -1.1277 H           1 MOL       0.0576
     43 H8        -45.7084  -43.6276   -2.6093 H           1 MOL       0.0576
     44 H9        -45.8507  -40.3664   -0.9539 H           1 MOL       0.0708
     45 H10       -45.0305  -41.1039    0.4650 H           1 MOL       0.0708
     46 H11       -52.9163  -51.1848   -3.2309 H           1 MOL       0.0569
     47 H12       -53.0195  -49.7333   -2.2709 H           1 MOL       0.0569
     48 H13       -54.3093  -51.5944   -1.2680 H           1 MOL       0.0834
     49 H14       -53.0198  -51.0739   -0.1735 H           1 MOL       0.0834
     50 H15       -52.9619  -53.3831   -2.0137 H           1 MOL       0.2032
     51 H16       -50.8174  -54.0024   -1.2292 H           1 MOL       0.0834
     52 H17       -50.8102  -52.5992   -0.1535 H           1 MOL       0.0834
     53 H18       -49.5005  -52.1408   -2.1475 H           1 MOL       0.0569
     54 H19       -50.8263  -52.5748   -3.2241 H           1 MOL       0.0569
     55 H20       -54.3555  -53.8289   -0.1374 H           1 MOL       0.0778
     56 H21       -53.0102  -53.4113    0.9395 H           1 MOL       0.0778
     57 H22       -52.9061  -54.8261   -0.1246 H           1 MOL       0.0778
     58 H23       -44.0916  -38.3703   -0.7370 H           1 MOL       0.0562
     59 H24       -45.3331  -36.6211   -1.8132 H           1 MOL       0.0600
     60 H25       -45.7087  -36.6836   -4.2089 H           1 MOL       0.0561
     61 H26       -43.5397  -40.2669   -4.4721 H           1 MOL       0.0562
     62 H27       -42.0281  -40.6808   -2.4705 H           1 MOL       0.1000
     63 H28       -44.7933  -38.5047   -5.5331 H           1 MOL       0.0600
     64 H29       -41.1726  -40.7132    0.9984 H           1 MOL       0.0528
     65 H30       -40.4648  -40.5810   -0.6136 H           1 MOL       0.0528
     66 H31       -41.3627  -42.0432   -0.1588 H           1 MOL       0.0528
@<TRIPOS>BOND
     1     1    15   1
     2     1    16   1
     3    25     1  am
     4     2     4   1
     5    13     2   1
     6     3     4   2
     7     3     5   1
     8    14     3   1
     9     5     6  am
    10     6     7   1
    11     6     8   2
    12     7     9  ar
    13     7    12  ar
    14     9    10  ar
    15    10    24  ar
    16    12    11  ar
    17    11    24  ar
    18    13    14   2
    19    16    13   1
    20    15    14   1
    21    17    18   1
    22    17    22   1
    23    24    17   1
    24    18    19   1
    25    19    20   1
    26    21    20   1
    27    20    23   1
    28    22    21   1
    29    25    26   2
    30    32    25   1
    31    27    28  ar
    32    29    27  ar
    33    28    30  ar
    34    29    31  ar
    35    29    32   1
    36    30    33  ar
    37    31    33  ar
    38    32    35   1
    39    35    34   1
    40     2    36   1
    41     5    37   1
    42     9    38   1
    43    10    39   1
    44    11    40   1
    45    12    41   1
    46    15    42   1
    47    15    43   1
    48    16    44   1
    49    16    45   1
    50    18    46   1
    51    18    47   1
    52    19    48   1
    53    19    49   1
    54    20    50   1
    55    21    51   1
    56    21    52   1
    57    22    53   1
    58    22    54   1
    59    23    55   1
    60    23    56   1
    61    23    57   1
    62    27    58   1
    63    28    59   1
    64    30    60   1
    65    31    61   1
    66    32    62   1
    67    33    63   1
    68    34    64   1
    69    34    65   1
    70    34    66   1
@<TRIPOS>SUBSTRUCTURE
     1  MOL      3

