@<TRIPOS>MOLECULE
2v7a_ligand_074
    66    70
SMALL
GAST_HUCK
****
This file was generated by PARSER (from files_GN.cpp)

@<TRIPOS>ATOM
      1 N1        -43.6960  -47.7537   -6.7292 N.am        1 MOL      -0.2534
      2 N2        -46.3950  -46.2673   -4.8591 N.pl3       1 MOL      -0.2433
      3 C3        -46.4454  -48.3924   -4.3853 C.2         1 MOL       0.1027
      4 N4        -47.0113  -47.1829   -4.1657 N.2         1 MOL      -0.2404
      5 N5        -46.8015  -49.6072   -3.8886 N.am        1 MOL      -0.2391
      6 C6        -47.8061  -49.8880   -3.0555 C.2         1 MOL       0.2181
      7 C7        -48.1646  -51.1994   -2.6844 C.ar        1 MOL       0.0412
      8 O8        -48.4591  -48.9531   -2.6014 O.2         1 MOL      -0.3816
      9 C9        -49.2054  -51.4405   -1.7490 C.ar        1 MOL      -0.0531
     10 C10       -49.5995  -52.7389   -1.3983 C.ar        1 MOL      -0.0381
     11 C11       -47.9336  -53.6475   -2.8799 C.ar        1 MOL      -0.0381
     12 C12       -47.5395  -52.3479   -3.2370 C.ar        1 MOL      -0.0531
     13 C13       -45.4066  -46.8309   -5.5671 C.2         1 MOL       0.0786
     14 C14       -45.4034  -48.1617   -5.2756 C.2         1 MOL       0.0146
     15 C15       -44.3365  -48.8353   -5.9947 C.3         1 MOL       0.0514
     16 C16       -44.3485  -46.4792   -6.5057 C.3         1 MOL       0.0897
     17 N17       -49.4005  -55.1547   -1.6142 N.pl3       1 MOL      -0.2958
     18 C18       -48.4777  -56.2592   -1.3962 C.3         1 MOL       0.0680
     19 C19       -48.8139  -57.4556   -2.3249 C.3         1 MOL      -0.0118
     20 N20       -50.2504  -57.8640   -2.2303 N.4         1 MOL       0.2359
     21 C21       -51.1585  -56.6890   -2.4127 C.3         1 MOL      -0.0118
     22 C22       -50.8087  -55.5041   -1.4709 C.3         1 MOL       0.0680
     23 C23       -50.5805  -58.6904   -1.0296 C.3         1 MOL      -0.0430
     24 C24       -48.9859  -53.8887   -1.9569 C.ar        1 MOL       0.0460
     25 C25       -42.6135  -47.9581   -7.5002 C.2         1 MOL       0.2222
     26 O26       -42.1252  -49.0835   -7.4754 O.2         1 MOL      -0.3907
     27 C27       -42.3537  -46.1581  -10.7406 C.ar        1 MOL      -0.0555
     28 C28       -42.4189  -46.3780  -12.1304 C.ar        1 MOL      -0.0680
     29 C29       -42.1045  -47.2287   -9.8351 C.ar        1 MOL       0.0044
     30 C31       -42.2702  -47.6748  -12.6487 C.ar        1 MOL      -0.0684
     31 C33       -41.9221  -48.5203  -10.3936 C.ar        1 MOL      -0.0555
     32 C20       -41.8844  -47.0055   -8.3654 C.3         1 MOL       0.1804
     33 C35       -42.0222  -48.7471  -11.7768 C.ar        1 MOL      -0.0680
     34 C36       -41.2499  -45.0323   -7.0247 C.3         1 MOL       0.0424
     35 O34       -42.1347  -45.6295   -7.9970 O.3         1 MOL      -0.3473
     36 H1        -46.6199  -45.3247   -4.8669 H           1 MOL       0.2389
     37 H2        -46.2703  -50.3510   -4.2024 H           1 MOL       0.2188
     38 H3        -49.6914  -50.6639   -1.2927 H           1 MOL       0.0636
     39 H4        -50.3210  -52.8303   -0.6805 H           1 MOL       0.0530
     40 H5        -47.4722  -54.4265   -3.3561 H           1 MOL       0.0530
     41 H6        -46.7921  -52.2597   -3.9275 H           1 MOL       0.0636
     42 H7        -43.6500  -49.3008   -5.2854 H           1 MOL       0.0576
     43 H8        -44.7533  -49.5824   -6.6731 H           1 MOL       0.0576
     44 H9        -44.7762  -46.0663   -7.4234 H           1 MOL       0.0708
     45 H10       -43.6921  -45.7530   -6.0206 H           1 MOL       0.0708
     46 H11       -48.5571  -56.5775   -0.3540 H           1 MOL       0.0569
     47 H12       -47.4296  -55.9952   -1.5344 H           1 MOL       0.0569
     48 H13       -48.1571  -58.2974   -2.0947 H           1 MOL       0.0834
     49 H14       -48.6058  -57.1651   -3.3587 H           1 MOL       0.0834
     50 H15       -50.4215  -58.4771   -3.0304 H           1 MOL       0.2032
     51 H16       -52.2053  -56.9791   -2.2716 H           1 MOL       0.0834
     52 H17       -51.0673  -56.3447   -3.4494 H           1 MOL       0.0834
     53 H18       -51.4886  -54.6922   -1.7368 H           1 MOL       0.0569
     54 H19       -51.0204  -55.7678   -0.4309 H           1 MOL       0.0569
     55 H20       -51.6045  -59.0625   -1.1058 H           1 MOL       0.0778
     56 H21       -50.4885  -58.1235   -0.1032 H           1 MOL       0.0778
     57 H22       -49.9205  -59.5577   -0.9749 H           1 MOL       0.0778
     58 H23       -42.4613  -45.1945  -10.4094 H           1 MOL       0.0562
     59 H24       -42.5607  -45.5935  -12.7711 H           1 MOL       0.0600
     60 H25       -42.3325  -47.8429  -13.6558 H           1 MOL       0.0561
     61 H26       -41.6982  -49.3115   -9.7894 H           1 MOL       0.0562
     62 H27       -40.8082  -47.1929   -8.2364 H           1 MOL       0.1000
     63 H28       -41.8910  -49.6913  -12.1454 H           1 MOL       0.0600
     64 H29       -41.6150  -44.0210   -6.8095 H           1 MOL       0.0528
     65 H30       -40.2273  -44.9532   -7.4232 H           1 MOL       0.0528
     66 H31       -41.2342  -45.6065   -6.0875 H           1 MOL       0.0528
@<TRIPOS>BOND
     1     1    15   1
     2     1    16   1
     3    25     1  am
     4     2     4   1
     5    13     2   1
     6     3     4   2
     7     3     5   1
     8    14     3   1
     9     5     6  am
    10     6     7   1
    11     6     8   2
    12     7     9  ar
    13     7    12  ar
    14     9    10  ar
    15    10    24  ar
    16    12    11  ar
    17    11    24  ar
    18    13    14   2
    19    16    13   1
    20    15    14   1
    21    17    18   1
    22    17    22   1
    23    24    17   1
    24    18    19   1
    25    19    20   1
    26    21    20   1
    27    20    23   1
    28    22    21   1
    29    25    26   2
    30    32    25   1
    31    27    28  ar
    32    29    27  ar
    33    28    30  ar
    34    29    31  ar
    35    29    32   1
    36    30    33  ar
    37    31    33  ar
    38    32    35   1
    39    35    34   1
    40     2    36   1
    41     5    37   1
    42     9    38   1
    43    10    39   1
    44    11    40   1
    45    12    41   1
    46    15    42   1
    47    15    43   1
    48    16    44   1
    49    16    45   1
    50    18    46   1
    51    18    47   1
    52    19    48   1
    53    19    49   1
    54    20    50   1
    55    21    51   1
    56    21    52   1
    57    22    53   1
    58    22    54   1
    59    23    55   1
    60    23    56   1
    61    23    57   1
    62    27    58   1
    63    28    59   1
    64    30    60   1
    65    31    61   1
    66    32    62   1
    67    33    63   1
    68    34    64   1
    69    34    65   1
    70    34    66   1
@<TRIPOS>SUBSTRUCTURE
     1  MOL      3

