@<TRIPOS>MOLECULE
2v7a_ligand_029
    66    70
SMALL
GAST_HUCK
****
This file was generated by PARSER (from files_GN.cpp)

@<TRIPOS>ATOM
      1 N1        -44.4281  -47.9398   -9.7053 N.am        1 MOL      -0.2534
      2 N2        -46.1452  -50.8242  -10.9640 N.pl3       1 MOL      -0.2433
      3 C3        -46.3654  -50.9027   -8.8044 C.2         1 MOL       0.1027
      4 N4        -46.6342  -51.5171   -9.9806 N.2         1 MOL      -0.2404
      5 N5        -46.6788  -51.3254   -7.5525 N.am        1 MOL      -0.2391
      6 C6        -47.2505  -52.4820   -7.2229 C.2         1 MOL       0.2181
      7 C7        -47.5376  -52.8093   -5.8930 C.ar        1 MOL       0.0412
      8 O8        -47.5012  -53.3139   -8.0879 O.2         1 MOL      -0.3816
      9 C9        -47.5228  -54.1603   -5.4670 C.ar        1 MOL      -0.0531
     10 C10       -47.8151  -54.5116   -4.1368 C.ar        1 MOL      -0.0381
     11 C11       -48.2584  -52.1853   -3.6251 C.ar        1 MOL      -0.0381
     12 C12       -47.8945  -51.8258   -4.9387 C.ar        1 MOL      -0.0531
     13 C13       -45.5346  -49.7401  -10.4742 C.2         1 MOL       0.0786
     14 C14       -45.6580  -49.7496   -9.1189 C.2         1 MOL       0.0146
     15 C15       -44.9768  -48.5991   -8.5347 C.3         1 MOL       0.0514
     16 C16       -44.7776  -48.6000  -10.9469 C.3         1 MOL       0.0897
     17 N17       -48.5338  -53.8796   -1.9172 N.pl3       1 MOL      -0.2958
     18 C18       -47.6450  -54.6799   -1.0966 C.3         1 MOL       0.0680
     19 C19       -48.3626  -55.9436   -0.5637 C.3         1 MOL      -0.0118
     20 N20       -49.6922  -55.6373    0.0492 N.4         1 MOL       0.2359
     21 C21       -50.5335  -54.7765   -0.8432 C.3         1 MOL      -0.0118
     22 C22       -49.7997  -53.4952   -1.3269 C.3         1 MOL       0.0680
     23 C23       -49.6104  -55.1414    1.4520 C.3         1 MOL      -0.0430
     24 C24       -48.2074  -53.5326   -3.1968 C.ar        1 MOL       0.0460
     25 C25       -43.6498  -46.8466   -9.6921 C.2         1 MOL       0.2222
     26 O26       -43.2160  -46.4199  -10.7581 O.2         1 MOL      -0.3907
     27 C27       -44.4670  -45.1448   -6.4669 C.ar        1 MOL      -0.0555
     28 C28       -45.4685  -44.3319   -5.9023 C.ar        1 MOL      -0.0680
     29 C29       -44.3618  -45.3171   -7.8739 C.ar        1 MOL       0.0044
     30 C31       -46.3936  -43.6720   -6.7295 C.ar        1 MOL      -0.0684
     31 C33       -45.2886  -44.6107   -8.6850 C.ar        1 MOL      -0.0555
     32 C20       -43.2396  -46.0972   -8.4934 C.3         1 MOL       0.1804
     33 C35       -46.3021  -43.8163   -8.1234 C.ar        1 MOL      -0.0680
     34 C36       -41.2931  -47.4892   -7.8752 C.3         1 MOL       0.0424
     35 O34       -42.5982  -46.9776   -7.5387 O.3         1 MOL      -0.3473
     36 H1        -46.1937  -51.0613  -11.9031 H           1 MOL       0.2389
     37 H2        -46.4240  -50.7354   -6.8259 H           1 MOL       0.2188
     38 H3        -47.3000  -54.9103   -6.1256 H           1 MOL       0.0636
     39 H4        -47.8161  -55.5006   -3.8772 H           1 MOL       0.0530
     40 H5        -48.5038  -51.4487   -2.9591 H           1 MOL       0.0530
     41 H6        -47.9233  -50.8363   -5.1961 H           1 MOL       0.0636
     42 H7        -45.6934  -47.9687   -8.0070 H           1 MOL       0.0576
     43 H8        -44.1971  -48.9472   -7.8558 H           1 MOL       0.0576
     44 H9        -43.8945  -48.9384  -11.4966 H           1 MOL       0.0708
     45 H10       -45.4025  -47.9640  -11.5787 H           1 MOL       0.0708
     46 H11       -47.3234  -54.0683   -0.2492 H           1 MOL       0.0569
     47 H12       -46.7380  -54.9900   -1.6244 H           1 MOL       0.0569
     48 H13       -47.7093  -56.4589    0.1465 H           1 MOL       0.0834
     49 H14       -48.5212  -56.6248   -1.4033 H           1 MOL       0.0834
     50 H15       -50.1799  -56.5324    0.1117 H           1 MOL       0.2032
     51 H16       -51.4712  -54.5022   -0.3507 H           1 MOL       0.0834
     52 H17       -50.8016  -55.3691   -1.7232 H           1 MOL       0.0834
     53 H18       -50.4588  -52.9804   -2.0342 H           1 MOL       0.0569
     54 H19       -49.6263  -52.8157   -0.4900 H           1 MOL       0.0569
     55 H20       -50.6149  -55.0532    1.8707 H           1 MOL       0.0778
     56 H21       -49.1185  -54.1686    1.5153 H           1 MOL       0.0778
     57 H22       -49.0599  -55.8517    2.0721 H           1 MOL       0.0778
     58 H23       -43.7920  -45.5796   -5.8356 H           1 MOL       0.0562
     59 H24       -45.5136  -44.2037   -4.8888 H           1 MOL       0.0600
     60 H25       -47.1155  -43.0737   -6.3202 H           1 MOL       0.0561
     61 H26       -45.2210  -44.6545   -9.7043 H           1 MOL       0.0562
     62 H27       -42.5021  -45.3322   -8.7695 H           1 MOL       0.1000
     63 H28       -46.9590  -43.3204   -8.7305 H           1 MOL       0.0600
     64 H29       -40.9645  -48.1543   -7.0755 H           1 MOL       0.0528
     65 H30       -40.5739  -46.6714   -7.9656 H           1 MOL       0.0528
     66 H31       -41.3104  -48.0605   -8.8073 H           1 MOL       0.0528
@<TRIPOS>BOND
     1     1    15   1
     2     1    16   1
     3    25     1  am
     4     2     4   1
     5    13     2   1
     6     3     4   2
     7     3     5   1
     8    14     3   1
     9     5     6  am
    10     6     7   1
    11     6     8   2
    12     7     9  ar
    13     7    12  ar
    14     9    10  ar
    15    10    24  ar
    16    12    11  ar
    17    11    24  ar
    18    13    14   2
    19    16    13   1
    20    15    14   1
    21    17    18   1
    22    17    22   1
    23    24    17   1
    24    18    19   1
    25    19    20   1
    26    21    20   1
    27    20    23   1
    28    22    21   1
    29    25    26   2
    30    32    25   1
    31    27    28  ar
    32    29    27  ar
    33    28    30  ar
    34    29    31  ar
    35    29    32   1
    36    30    33  ar
    37    31    33  ar
    38    32    35   1
    39    35    34   1
    40     2    36   1
    41     5    37   1
    42     9    38   1
    43    10    39   1
    44    11    40   1
    45    12    41   1
    46    15    42   1
    47    15    43   1
    48    16    44   1
    49    16    45   1
    50    18    46   1
    51    18    47   1
    52    19    48   1
    53    19    49   1
    54    20    50   1
    55    21    51   1
    56    21    52   1
    57    22    53   1
    58    22    54   1
    59    23    55   1
    60    23    56   1
    61    23    57   1
    62    27    58   1
    63    28    59   1
    64    30    60   1
    65    31    61   1
    66    32    62   1
    67    33    63   1
    68    34    64   1
    69    34    65   1
    70    34    66   1
@<TRIPOS>SUBSTRUCTURE
     1  MOL      3

