@<TRIPOS>MOLECULE
2v7a_ligand_024
    66    70
SMALL
GAST_HUCK
****
This file was generated by PARSER (from files_GN.cpp)

@<TRIPOS>ATOM
      1 N1        -47.5669  -43.8665    1.2457 N.am        1 MOL      -0.2534
      2 N2        -49.1904  -44.1031   -1.9506 N.pl3       1 MOL      -0.2433
      3 C3        -48.5053  -46.1134   -1.4981 C.2         1 MOL       0.1027
      4 N4        -49.1217  -45.3144   -2.4044 N.2         1 MOL      -0.2404
      5 N5        -48.3186  -47.4280   -1.7545 N.am        1 MOL      -0.2391
      6 C6        -47.8512  -48.3982   -0.9697 C.2         1 MOL       0.2181
      7 C7        -47.7320  -49.7022   -1.4511 C.ar        1 MOL       0.0412
      8 O8        -47.6245  -48.1747    0.2167 O.2         1 MOL      -0.3816
      9 C9        -47.9452  -50.8243   -0.6123 C.ar        1 MOL      -0.0531
     10 C10       -47.8558  -52.1334   -1.1088 C.ar        1 MOL      -0.0381
     11 C11       -47.3005  -51.2740   -3.2898 C.ar        1 MOL      -0.0381
     12 C12       -47.3962  -49.9616   -2.8013 C.ar        1 MOL      -0.0531
     13 C13       -48.6161  -44.0526   -0.7397 C.2         1 MOL       0.0786
     14 C14       -48.1580  -45.2968   -0.4245 C.2         1 MOL       0.0146
     15 C15       -47.4583  -45.2583    0.8566 C.3         1 MOL       0.0514
     16 C16       -48.2798  -43.0709    0.2675 C.3         1 MOL       0.0897
     17 N17       -47.4897  -53.6941   -2.9655 N.pl3       1 MOL      -0.2958
     18 C18       -46.9123  -54.8083   -2.2326 C.3         1 MOL       0.0680
     19 C19       -47.9818  -55.9018   -2.0000 C.3         1 MOL      -0.0118
     20 N20       -48.5290  -56.3506   -3.3166 N.4         1 MOL       0.2359
     21 C21       -49.0749  -55.2122   -4.1174 C.3         1 MOL      -0.0118
     22 C22       -48.0351  -54.0677   -4.2661 C.3         1 MOL       0.0680
     23 C23       -49.4961  -57.4763   -3.1818 C.3         1 MOL      -0.0430
     24 C24       -47.5468  -52.4067   -2.4694 C.ar        1 MOL       0.0460
     25 C25       -47.0400  -43.4011    2.3890 C.2         1 MOL       0.2222
     26 O26       -46.4545  -44.1887    3.1315 O.2         1 MOL      -0.3907
     27 C27       -48.2537  -40.0464    1.7082 C.ar        1 MOL      -0.0555
     28 C28       -48.2104  -39.0625    0.7006 C.ar        1 MOL      -0.0680
     29 C29       -47.1875  -40.9647    1.8817 C.ar        1 MOL       0.0044
     30 C31       -47.0977  -38.9766   -0.1512 C.ar        1 MOL      -0.0684
     31 C33       -46.0746  -40.8585    1.0096 C.ar        1 MOL      -0.0555
     32 C20       -47.2051  -42.0401    2.9268 C.3         1 MOL       0.1804
     33 C35       -46.0325  -39.8778   -0.0015 C.ar        1 MOL      -0.0680
     34 C36       -48.3363  -42.5991    5.0500 C.3         1 MOL       0.0424
     35 O34       -48.4080  -42.0019    3.7369 O.3         1 MOL      -0.3473
     36 H1        -49.5783  -43.3437   -2.4211 H           1 MOL       0.2389
     37 H2        -48.6061  -47.7066   -2.6386 H           1 MOL       0.2188
     38 H3        -48.2033  -50.6913    0.3700 H           1 MOL       0.0636
     39 H4        -48.0928  -52.8868   -0.4619 H           1 MOL       0.0530
     40 H5        -46.9992  -51.3904   -4.2571 H           1 MOL       0.0530
     41 H6        -47.1881  -49.1928   -3.4445 H           1 MOL       0.0636
     42 H7        -47.9596  -45.9099    1.5773 H           1 MOL       0.0576
     43 H8        -46.4136  -45.5647    0.7265 H           1 MOL       0.0576
     44 H9        -47.6432  -42.3126   -0.1921 H           1 MOL       0.0708
     45 H10       -49.1881  -42.6317    0.6832 H           1 MOL       0.0708
     46 H11       -46.4604  -54.5325   -1.2807 H           1 MOL       0.0569
     47 H12       -46.0977  -55.2360   -2.8263 H           1 MOL       0.0569
     48 H13       -48.7793  -55.5097   -1.3618 H           1 MOL       0.0834
     49 H14       -47.5117  -56.7430   -1.4840 H           1 MOL       0.0834
     50 H15       -47.7320  -56.7180   -3.8380 H           1 MOL       0.2032
     51 H16       -49.9768  -54.8167   -3.6383 H           1 MOL       0.0834
     52 H17       -49.3490  -55.5583   -5.1186 H           1 MOL       0.0834
     53 H18       -47.2231  -54.3971   -4.9190 H           1 MOL       0.0569
     54 H19       -48.5563  -53.2583   -4.7782 H           1 MOL       0.0569
     55 H20       -49.8071  -57.8278   -4.1694 H           1 MOL       0.0778
     56 H21       -50.3863  -57.1743   -2.6230 H           1 MOL       0.0778
     57 H22       -49.0307  -58.3195   -2.6662 H           1 MOL       0.0778
     58 H23       -49.0821  -40.0871    2.3048 H           1 MOL       0.0562
     59 H24       -48.9928  -38.4120    0.5877 H           1 MOL       0.0600
     60 H25       -47.0708  -38.2689   -0.8891 H           1 MOL       0.0561
     61 H26       -45.2850  -41.4963    1.1033 H           1 MOL       0.0562
     62 H27       -46.3541  -41.7860    3.5743 H           1 MOL       0.1000
     63 H28       -45.2208  -39.8185   -0.6197 H           1 MOL       0.0600
     64 H29       -49.3035  -42.4797    5.5465 H           1 MOL       0.0528
     65 H30       -47.5746  -42.1001    5.6583 H           1 MOL       0.0528
     66 H31       -48.1109  -43.6669    4.9910 H           1 MOL       0.0528
@<TRIPOS>BOND
     1     1    15   1
     2     1    16   1
     3    25     1  am
     4     2     4   1
     5    13     2   1
     6     3     4   2
     7     3     5   1
     8    14     3   1
     9     5     6  am
    10     6     7   1
    11     6     8   2
    12     7     9  ar
    13     7    12  ar
    14     9    10  ar
    15    10    24  ar
    16    12    11  ar
    17    11    24  ar
    18    13    14   2
    19    16    13   1
    20    15    14   1
    21    17    18   1
    22    17    22   1
    23    24    17   1
    24    18    19   1
    25    19    20   1
    26    21    20   1
    27    20    23   1
    28    22    21   1
    29    25    26   2
    30    32    25   1
    31    27    28  ar
    32    29    27  ar
    33    28    30  ar
    34    29    31  ar
    35    29    32   1
    36    30    33  ar
    37    31    33  ar
    38    32    35   1
    39    35    34   1
    40     2    36   1
    41     5    37   1
    42     9    38   1
    43    10    39   1
    44    11    40   1
    45    12    41   1
    46    15    42   1
    47    15    43   1
    48    16    44   1
    49    16    45   1
    50    18    46   1
    51    18    47   1
    52    19    48   1
    53    19    49   1
    54    20    50   1
    55    21    51   1
    56    21    52   1
    57    22    53   1
    58    22    54   1
    59    23    55   1
    60    23    56   1
    61    23    57   1
    62    27    58   1
    63    28    59   1
    64    30    60   1
    65    31    61   1
    66    32    62   1
    67    33    63   1
    68    34    64   1
    69    34    65   1
    70    34    66   1
@<TRIPOS>SUBSTRUCTURE
     1  MOL      3

