@<TRIPOS>MOLECULE
2v7a_ligand_049
    66    70
SMALL
GAST_HUCK
****
This file was generated by PARSER (from files_GN.cpp)

@<TRIPOS>ATOM
      1 N1        -45.5498  -44.7623   -5.8108 N.am        1 MOL      -0.2534
      2 N2        -43.6758  -47.4287   -7.3090 N.pl3       1 MOL      -0.2433
      3 C3        -45.1265  -48.3950   -6.0076 C.2         1 MOL       0.1027
      4 N4        -44.1386  -48.5767   -6.9137 N.2         1 MOL      -0.2404
      5 N5        -45.7756  -49.4468   -5.4543 N.am        1 MOL      -0.2391
      6 C6        -46.6799  -49.4715   -4.4773 C.2         1 MOL       0.2181
      7 C7        -47.2567  -50.6735   -4.0654 C.ar        1 MOL       0.0412
      8 O8        -46.9688  -48.4456   -3.8736 O.2         1 MOL      -0.3816
      9 C9        -47.6394  -50.8833   -2.7179 C.ar        1 MOL      -0.0531
     10 C10       -48.2102  -52.0989   -2.3023 C.ar        1 MOL      -0.0381
     11 C11       -48.0913  -52.9327   -4.5649 C.ar        1 MOL      -0.0381
     12 C12       -47.4919  -51.7308   -4.9800 C.ar        1 MOL      -0.0531
     13 C13       -44.3421  -46.4513   -6.6858 C.2         1 MOL       0.0786
     14 C14       -45.2695  -47.0176   -5.8644 C.2         1 MOL       0.0146
     15 C15       -46.0664  -45.9817   -5.2269 C.3         1 MOL       0.0514
     16 C16       -44.4089  -45.0002   -6.6724 C.3         1 MOL       0.0897
     17 N17       -49.0052  -54.3494   -2.7994 N.pl3       1 MOL      -0.2958
     18 C18       -48.6578  -54.9666   -1.5293 C.3         1 MOL       0.0680
     19 C19       -48.0012  -56.3493   -1.7970 C.3         1 MOL      -0.0118
     20 N20       -48.8130  -57.2344   -2.6921 N.4         1 MOL       0.2359
     21 C21       -49.2579  -56.5217   -3.9325 C.3         1 MOL      -0.0118
     22 C22       -49.8948  -55.1396   -3.6314 C.3         1 MOL       0.0680
     23 C23       -49.9081  -57.9611   -1.9878 C.3         1 MOL      -0.0430
     24 C24       -48.4520  -53.1583   -3.2120 C.ar        1 MOL       0.0460
     25 C25       -46.1372  -43.5727   -5.5969 C.2         1 MOL       0.2222
     26 O26       -47.1577  -43.5336   -4.9167 O.2         1 MOL      -0.3907
     27 C27       -46.7300  -42.9063   -8.4278 C.ar        1 MOL      -0.0555
     28 C28       -47.3515  -42.5547   -9.6422 C.ar        1 MOL      -0.0680
     29 C29       -46.4353  -41.9298   -7.4359 C.ar        1 MOL       0.0044
     30 C31       -47.6807  -41.2140   -9.9059 C.ar        1 MOL      -0.0684
     31 C33       -46.7795  -40.5827   -7.7291 C.ar        1 MOL      -0.0555
     32 C20       -45.7065  -42.2966   -6.1733 C.3         1 MOL       0.1804
     33 C35       -47.3783  -40.2239   -8.9562 C.ar        1 MOL      -0.0680
     34 C36       -44.8230  -40.2817   -5.0392 C.3         1 MOL       0.0424
     35 O34       -45.8307  -41.3041   -5.1230 O.3         1 MOL      -0.3473
     36 H1        -42.9716  -47.3030   -7.9672 H           1 MOL       0.2389
     37 H2        -45.5168  -50.3101   -5.8085 H           1 MOL       0.2188
     38 H3        -47.4975  -50.1507   -2.0178 H           1 MOL       0.0636
     39 H4        -48.4909  -52.1832   -1.3224 H           1 MOL       0.0530
     40 H5        -48.2028  -53.6706   -5.2616 H           1 MOL       0.0530
     41 H6        -47.2450  -51.6297   -5.9668 H           1 MOL       0.0636
     42 H7        -47.1202  -46.1328   -5.4642 H           1 MOL       0.0576
     43 H8        -45.9218  -45.9887   -4.1482 H           1 MOL       0.0576
     44 H9        -43.4879  -44.5856   -6.2572 H           1 MOL       0.0708
     45 H10       -44.5757  -44.6273   -7.6875 H           1 MOL       0.0708
     46 H11       -49.5555  -55.0900   -0.9175 H           1 MOL       0.0569
     47 H12       -47.9405  -54.3877   -0.9417 H           1 MOL       0.0569
     48 H13       -47.7891  -56.8462   -0.8447 H           1 MOL       0.0834
     49 H14       -47.0344  -56.1815   -2.2835 H           1 MOL       0.0834
     50 H15       -48.1635  -57.9477   -3.0204 H           1 MOL       0.2032
     51 H16       -49.9597  -57.1312   -4.5073 H           1 MOL       0.0834
     52 H17       -48.3831  -56.3641   -4.5690 H           1 MOL       0.0834
     53 H18       -50.1620  -54.6545   -4.5718 H           1 MOL       0.0569
     54 H19       -50.8367  -55.2912   -3.0961 H           1 MOL       0.0569
     55 H20       -50.4013  -58.6563   -2.6693 H           1 MOL       0.0778
     56 H21       -50.6566  -57.2761   -1.5867 H           1 MOL       0.0778
     57 H22       -49.4997  -58.5501   -1.1636 H           1 MOL       0.0778
     58 H23       -46.5108  -43.8964   -8.2651 H           1 MOL       0.0562
     59 H24       -47.5811  -43.2787  -10.3282 H           1 MOL       0.0600
     60 H25       -48.1422  -40.9631  -10.7886 H           1 MOL       0.0561
     61 H26       -46.5781  -39.8332   -7.0598 H           1 MOL       0.0562
     62 H27       -44.6575  -42.3934   -6.4448 H           1 MOL       0.1000
     63 H28       -47.6066  -39.2494   -9.1488 H           1 MOL       0.0600
     64 H29       -45.1228  -39.5591   -4.2823 H           1 MOL       0.0528
     65 H30       -44.7090  -39.7657   -5.9937 H           1 MOL       0.0528
     66 H31       -43.8713  -40.7163   -4.7344 H           1 MOL       0.0528
@<TRIPOS>BOND
     1     1    15   1
     2     1    16   1
     3    25     1  am
     4     2     4   1
     5    13     2   1
     6     3     4   2
     7     3     5   1
     8    14     3   1
     9     5     6  am
    10     6     7   1
    11     6     8   2
    12     7     9  ar
    13     7    12  ar
    14     9    10  ar
    15    10    24  ar
    16    12    11  ar
    17    11    24  ar
    18    13    14   2
    19    16    13   1
    20    15    14   1
    21    17    18   1
    22    17    22   1
    23    24    17   1
    24    18    19   1
    25    19    20   1
    26    21    20   1
    27    20    23   1
    28    22    21   1
    29    25    26   2
    30    32    25   1
    31    27    28  ar
    32    29    27  ar
    33    28    30  ar
    34    29    31  ar
    35    29    32   1
    36    30    33  ar
    37    31    33  ar
    38    32    35   1
    39    35    34   1
    40     2    36   1
    41     5    37   1
    42     9    38   1
    43    10    39   1
    44    11    40   1
    45    12    41   1
    46    15    42   1
    47    15    43   1
    48    16    44   1
    49    16    45   1
    50    18    46   1
    51    18    47   1
    52    19    48   1
    53    19    49   1
    54    20    50   1
    55    21    51   1
    56    21    52   1
    57    22    53   1
    58    22    54   1
    59    23    55   1
    60    23    56   1
    61    23    57   1
    62    27    58   1
    63    28    59   1
    64    30    60   1
    65    31    61   1
    66    32    62   1
    67    33    63   1
    68    34    64   1
    69    34    65   1
    70    34    66   1
@<TRIPOS>SUBSTRUCTURE
     1  MOL      3

