@<TRIPOS>MOLECULE
2v7a_ligand_003
    66    70
SMALL
GAST_HUCK
****
This file was generated by PARSER (from files_GN.cpp)

@<TRIPOS>ATOM
      1 N1        -42.2209  -45.8892   -7.3696 N.am        1 MOL      -0.2534
      2 N2        -45.0938  -44.5320   -5.7032 N.pl3       1 MOL      -0.2433
      3 C3        -45.0933  -46.6518   -5.2497 C.2         1 MOL       0.1027
      4 N4        -45.6952  -45.4620   -5.0250 N.2         1 MOL      -0.2404
      5 N5        -45.4091  -47.8615   -4.7317 N.am        1 MOL      -0.2391
      6 C6        -46.2479  -48.1003   -3.7295 C.2         1 MOL       0.2181
      7 C7        -46.6219  -49.4066   -3.4216 C.ar        1 MOL       0.0412
      8 O8        -46.6589  -47.1845   -3.0225 O.2         1 MOL      -0.3816
      9 C9        -46.7765  -49.8177   -2.0778 C.ar        1 MOL      -0.0531
     10 C10       -47.1283  -51.1437   -1.7626 C.ar        1 MOL      -0.0381
     11 C11       -47.3334  -51.6454   -4.1262 C.ar        1 MOL      -0.0381
     12 C12       -46.8721  -50.3522   -4.4428 C.ar        1 MOL      -0.0531
     13 C13       -44.0698  -45.0685   -6.3726 C.2         1 MOL       0.0786
     14 C14       -44.0428  -46.4041   -6.1193 C.2         1 MOL       0.0146
     15 C15       -42.8932  -47.0252   -6.7554 C.3         1 MOL       0.0514
     16 C16       -42.9477  -44.6580   -7.1917 C.3         1 MOL       0.0897
     17 N17       -47.9175  -53.3137   -2.4650 N.pl3       1 MOL      -0.2958
     18 C18       -47.1910  -54.1809   -1.5603 C.3         1 MOL       0.0680
     19 C19       -46.8950  -55.5187   -2.2829 C.3         1 MOL      -0.0118
     20 N20       -48.1165  -56.1533   -2.8681 N.4         1 MOL       0.2359
     21 C21       -48.8901  -55.2053   -3.7272 C.3         1 MOL      -0.0118
     22 C22       -49.1425  -53.8411   -3.0374 C.3         1 MOL       0.0680
     23 C23       -48.9524  -56.8760   -1.8670 C.3         1 MOL      -0.0430
     24 C24       -47.4592  -52.0639   -2.7809 C.ar        1 MOL       0.0460
     25 C25       -41.0366  -45.9984   -7.9946 C.2         1 MOL       0.2222
     26 O26       -40.5408  -47.1220   -8.0358 O.2         1 MOL      -0.3907
     27 C27       -38.6583  -45.9445  -10.3006 C.ar        1 MOL      -0.0555
     28 C28       -38.3513  -46.2545  -11.6375 C.ar        1 MOL      -0.0680
     29 C29       -39.8360  -45.2256   -9.9729 C.ar        1 MOL       0.0044
     30 C31       -39.1909  -45.8097  -12.6739 C.ar        1 MOL      -0.0684
     31 C33       -40.6796  -44.7985  -11.0286 C.ar        1 MOL      -0.0555
     32 C20       -40.1703  -44.9366   -8.5433 C.3         1 MOL       0.1804
     33 C35       -40.3490  -45.0710  -12.3689 C.ar        1 MOL      -0.0680
     34 C36       -39.6867  -42.5232   -8.4993 C.3         1 MOL       0.0424
     35 O34       -40.6652  -43.5814   -8.4322 O.3         1 MOL      -0.3473
     36 H1        -45.3216  -43.5894   -5.6847 H           1 MOL       0.2389
     37 H2        -44.9728  -48.6322   -5.1307 H           1 MOL       0.2188
     38 H3        -46.6382  -49.1519   -1.3134 H           1 MOL       0.0636
     39 H4        -47.2336  -51.4072   -0.7794 H           1 MOL       0.0530
     40 H5        -47.5240  -52.3002   -4.8869 H           1 MOL       0.0530
     41 H6        -46.7480  -50.1032   -5.4276 H           1 MOL       0.0636
     42 H7        -42.2667  -47.4991   -5.9960 H           1 MOL       0.0576
     43 H8        -43.2168  -47.7610   -7.4952 H           1 MOL       0.0576
     44 H9        -43.3012  -44.2686   -8.1472 H           1 MOL       0.0708
     45 H10       -42.3644  -43.9161   -6.6412 H           1 MOL       0.0708
     46 H11       -47.7803  -54.3584   -0.6581 H           1 MOL       0.0569
     47 H12       -46.2314  -53.7526   -1.2487 H           1 MOL       0.0569
     48 H13       -46.3903  -56.2101   -1.5998 H           1 MOL       0.0834
     49 H14       -46.1928  -55.3198   -3.1008 H           1 MOL       0.0834
     50 H15       -47.7657  -56.8732   -3.4968 H           1 MOL       0.2032
     51 H16       -49.8465  -55.6387   -4.0296 H           1 MOL       0.0834
     52 H17       -48.3167  -55.0261   -4.6355 H           1 MOL       0.0834
     53 H18       -49.6099  -53.1636   -3.7603 H           1 MOL       0.0569
     54 H19       -49.8681  -53.9747   -2.2330 H           1 MOL       0.0569
     55 H20       -49.7800  -57.3837   -2.3651 H           1 MOL       0.0778
     56 H21       -49.3596  -56.2008   -1.1120 H           1 MOL       0.0778
     57 H22       -48.3534  -57.6399   -1.3670 H           1 MOL       0.0778
     58 H23       -38.0253  -46.2635   -9.5641 H           1 MOL       0.0562
     59 H24       -37.5130  -46.7968  -11.8567 H           1 MOL       0.0600
     60 H25       -38.9500  -46.0116  -13.6443 H           1 MOL       0.0561
     61 H26       -41.5317  -44.2699  -10.8295 H           1 MOL       0.0562
     62 H27       -39.2597  -44.9948   -7.9368 H           1 MOL       0.1000
     63 H28       -40.9531  -44.7340  -13.1211 H           1 MOL       0.0600
     64 H29       -40.2089  -41.5732   -8.5765 H           1 MOL       0.0528
     65 H30       -39.0385  -42.6297   -9.3647 H           1 MOL       0.0528
     66 H31       -39.0823  -42.5145   -7.5976 H           1 MOL       0.0528
@<TRIPOS>BOND
     1     1    15   1
     2     1    16   1
     3    25     1  am
     4     2     4   1
     5    13     2   1
     6     3     4   2
     7     3     5   1
     8    14     3   1
     9     5     6  am
    10     6     7   1
    11     6     8   2
    12     7     9  ar
    13     7    12  ar
    14     9    10  ar
    15    10    24  ar
    16    12    11  ar
    17    11    24  ar
    18    13    14   2
    19    16    13   1
    20    15    14   1
    21    17    18   1
    22    17    22   1
    23    24    17   1
    24    18    19   1
    25    19    20   1
    26    21    20   1
    27    20    23   1
    28    22    21   1
    29    25    26   2
    30    32    25   1
    31    27    28  ar
    32    29    27  ar
    33    28    30  ar
    34    29    31  ar
    35    29    32   1
    36    30    33  ar
    37    31    33  ar
    38    32    35   1
    39    35    34   1
    40     2    36   1
    41     5    37   1
    42     9    38   1
    43    10    39   1
    44    11    40   1
    45    12    41   1
    46    15    42   1
    47    15    43   1
    48    16    44   1
    49    16    45   1
    50    18    46   1
    51    18    47   1
    52    19    48   1
    53    19    49   1
    54    20    50   1
    55    21    51   1
    56    21    52   1
    57    22    53   1
    58    22    54   1
    59    23    55   1
    60    23    56   1
    61    23    57   1
    62    27    58   1
    63    28    59   1
    64    30    60   1
    65    31    61   1
    66    32    62   1
    67    33    63   1
    68    34    64   1
    69    34    65   1
    70    34    66   1
@<TRIPOS>SUBSTRUCTURE
     1  MOL      3

