@<TRIPOS>MOLECULE
2v7a_ligand_086
    66    70
SMALL
GAST_HUCK
****
This file was generated by PARSER (from files_GN.cpp)

@<TRIPOS>ATOM
      1 N1        -41.5280  -48.8508  -11.2035 N.am        1 MOL      -0.2534
      2 N2        -42.6539  -51.1863  -13.6947 N.pl3       1 MOL      -0.2433
      3 C3        -43.6251  -51.7838  -11.8502 C.2         1 MOL       0.1027
      4 N4        -43.4863  -52.0383  -13.1715 N.2         1 MOL      -0.2404
      5 N5        -44.3773  -52.4517  -10.9416 N.am        1 MOL      -0.2391
      6 C6        -45.2627  -53.4137  -11.1997 C.2         1 MOL       0.2181
      7 C7        -45.9507  -54.0295  -10.1705 C.ar        1 MOL       0.0412
      8 O8        -45.5830  -53.7147  -12.3468 O.2         1 MOL      -0.3816
      9 C9        -47.3665  -54.0130  -10.1245 C.ar        1 MOL      -0.0531
     10 C10       -48.0564  -54.6777   -9.1080 C.ar        1 MOL      -0.0381
     11 C11       -45.9537  -55.4692   -8.1926 C.ar        1 MOL      -0.0381
     12 C12       -45.2527  -54.7545   -9.1768 C.ar        1 MOL      -0.0531
     13 C13       -42.2578  -50.3114  -12.7609 C.2         1 MOL       0.0786
     14 C14       -42.8198  -50.6837  -11.5782 C.2         1 MOL       0.0146
     15 C15       -42.3961  -49.7898  -10.5116 C.3         1 MOL       0.0514
     16 C16       -41.4405  -49.1138  -12.6226 C.3         1 MOL       0.0897
     17 N17       -48.0679  -56.1646   -7.1926 N.pl3       1 MOL      -0.2958
     18 C18       -48.8219  -55.5313   -6.1213 C.3         1 MOL       0.0680
     19 C19       -50.3223  -55.9273   -6.2037 C.3         1 MOL      -0.0118
     20 N20       -50.5210  -57.4097   -6.2833 N.4         1 MOL       0.2359
     21 C21       -49.6742  -58.0186   -7.3606 C.3         1 MOL      -0.0118
     22 C22       -48.1769  -57.6122   -7.2599 C.3         1 MOL       0.0680
     23 C23       -50.3928  -58.1008   -4.9655 C.3         1 MOL      -0.0430
     24 C24       -47.3757  -55.4507   -8.1288 C.ar        1 MOL       0.0460
     25 C25       -40.8601  -47.8847  -10.5507 C.2         1 MOL       0.2222
     26 O26       -40.9626  -47.8411   -9.3274 O.2         1 MOL      -0.3907
     27 C27       -38.9330  -45.3453   -9.4142 C.ar        1 MOL      -0.0555
     28 C28       -38.8943  -44.1340   -8.7034 C.ar        1 MOL      -0.0680
     29 C29       -39.9420  -45.5968  -10.3845 C.ar        1 MOL       0.0044
     30 C31       -39.8732  -43.1532   -8.9297 C.ar        1 MOL      -0.0684
     31 C33       -40.9212  -44.5975  -10.5959 C.ar        1 MOL      -0.0555
     32 C20       -39.9814  -46.8743  -11.1698 C.3         1 MOL       0.1804
     33 C35       -40.8786  -43.3870   -9.8808 C.ar        1 MOL      -0.0680
     34 C36       -38.3648  -48.3816  -12.2580 C.3         1 MOL       0.0424
     35 O34       -38.6201  -47.3380  -11.3090 O.3         1 MOL      -0.3473
     36 H1        -42.3829  -51.1768  -14.6270 H           1 MOL       0.2389
     37 H2        -44.2922  -52.1704  -10.0143 H           1 MOL       0.2188
     38 H3        -47.8947  -53.5032  -10.8348 H           1 MOL       0.0636
     39 H4        -49.0749  -54.6457   -9.1328 H           1 MOL       0.0530
     40 H5        -45.4082  -55.9816   -7.4959 H           1 MOL       0.0530
     41 H6        -44.2264  -54.7944   -9.1780 H           1 MOL       0.0636
     42 H7        -43.2624  -49.2894  -10.0685 H           1 MOL       0.0576
     43 H8        -41.8568  -50.3628   -9.7535 H           1 MOL       0.0576
     44 H9        -40.4148  -49.3051  -12.9374 H           1 MOL       0.0708
     45 H10       -41.8768  -48.2987  -13.2076 H           1 MOL       0.0708
     46 H11       -48.7439  -54.4404   -6.1144 H           1 MOL       0.0569
     47 H12       -48.4124  -55.8618   -5.1622 H           1 MOL       0.0569
     48 H13       -50.7577  -55.4668   -7.0968 H           1 MOL       0.0834
     49 H14       -50.8530  -55.5072   -5.3443 H           1 MOL       0.0834
     50 H15       -51.4914  -57.5507   -6.5698 H           1 MOL       0.2032
     51 H16       -50.0650  -57.6838   -8.3300 H           1 MOL       0.0834
     52 H17       -49.7608  -59.1133   -7.3508 H           1 MOL       0.0834
     53 H18       -47.7489  -58.0660   -6.3641 H           1 MOL       0.0569
     54 H19       -47.6690  -58.0515   -8.1223 H           1 MOL       0.0569
     55 H20       -51.0747  -57.6584   -4.2361 H           1 MOL       0.0778
     56 H21       -49.3777  -58.0381   -4.5669 H           1 MOL       0.0778
     57 H22       -50.6595  -59.1544   -5.0640 H           1 MOL       0.0778
     58 H23       -38.2038  -46.0367   -9.2305 H           1 MOL       0.0562
     59 H24       -38.1486  -43.9667   -8.0266 H           1 MOL       0.0600
     60 H25       -39.8465  -42.2736   -8.4075 H           1 MOL       0.0561
     61 H26       -41.6647  -44.7386  -11.2825 H           1 MOL       0.0562
     62 H27       -40.3427  -46.6209  -12.1757 H           1 MOL       0.1000
     63 H28       -41.5711  -42.6654  -10.0627 H           1 MOL       0.0600
     64 H29       -37.2834  -48.4867  -12.3308 H           1 MOL       0.0528
     65 H30       -38.7503  -48.1199  -13.2522 H           1 MOL       0.0528
     66 H31       -38.7936  -49.3306  -11.9259 H           1 MOL       0.0528
@<TRIPOS>BOND
     1     1    15   1
     2     1    16   1
     3    25     1  am
     4     2     4   1
     5    13     2   1
     6     3     4   2
     7     3     5   1
     8    14     3   1
     9     5     6  am
    10     6     7   1
    11     6     8   2
    12     7     9  ar
    13     7    12  ar
    14     9    10  ar
    15    10    24  ar
    16    12    11  ar
    17    11    24  ar
    18    13    14   2
    19    16    13   1
    20    15    14   1
    21    17    18   1
    22    17    22   1
    23    24    17   1
    24    18    19   1
    25    19    20   1
    26    21    20   1
    27    20    23   1
    28    22    21   1
    29    25    26   2
    30    32    25   1
    31    27    28  ar
    32    29    27  ar
    33    28    30  ar
    34    29    31  ar
    35    29    32   1
    36    30    33  ar
    37    31    33  ar
    38    32    35   1
    39    35    34   1
    40     2    36   1
    41     5    37   1
    42     9    38   1
    43    10    39   1
    44    11    40   1
    45    12    41   1
    46    15    42   1
    47    15    43   1
    48    16    44   1
    49    16    45   1
    50    18    46   1
    51    18    47   1
    52    19    48   1
    53    19    49   1
    54    20    50   1
    55    21    51   1
    56    21    52   1
    57    22    53   1
    58    22    54   1
    59    23    55   1
    60    23    56   1
    61    23    57   1
    62    27    58   1
    63    28    59   1
    64    30    60   1
    65    31    61   1
    66    32    62   1
    67    33    63   1
    68    34    64   1
    69    34    65   1
    70    34    66   1
@<TRIPOS>SUBSTRUCTURE
     1  MOL      3

