@<TRIPOS>MOLECULE
2v7a_ligand_075
    66    70
SMALL
GAST_HUCK
****
This file was generated by PARSER (from files_GN.cpp)

@<TRIPOS>ATOM
      1 N1        -47.1698  -44.6803   -4.3688 N.am        1 MOL      -0.2534
      2 N2        -48.6556  -46.0962   -1.4222 N.pl3       1 MOL      -0.2433
      3 C3        -48.9094  -47.6043   -2.9623 C.2         1 MOL       0.1027
      4 N4        -49.1091  -47.2847   -1.6687 N.2         1 MOL      -0.2404
      5 N5        -49.3035  -48.8156   -3.4230 N.am        1 MOL      -0.2391
      6 C6        -49.3573  -49.2705   -4.6667 C.2         1 MOL       0.2181
      7 C7        -49.7335  -50.5913   -4.9119 C.ar        1 MOL       0.0412
      8 O8        -49.2078  -48.5043   -5.6087 O.2         1 MOL      -0.3816
      9 C9        -50.5264  -50.9305   -6.0326 C.ar        1 MOL      -0.0531
     10 C10       -50.9716  -52.2483   -6.2332 C.ar        1 MOL      -0.0381
     11 C11       -49.7458  -52.9679   -4.2783 C.ar        1 MOL      -0.0381
     12 C12       -49.3409  -51.6410   -4.0433 C.ar        1 MOL      -0.0531
     13 C13       -48.1232  -45.5956   -2.5353 C.2         1 MOL       0.0786
     14 C14       -48.2725  -46.5049   -3.5392 C.2         1 MOL       0.0146
     15 C15       -47.6769  -45.9802   -4.7701 C.3         1 MOL       0.0514
     16 C16       -47.4349  -44.4013   -2.9708 C.3         1 MOL       0.0897
     17 N17       -51.0839  -54.5734   -5.5334 N.pl3       1 MOL      -0.2958
     18 C18       -50.2480  -55.7464   -5.3674 C.3         1 MOL       0.0680
     19 C19       -50.2677  -56.5692   -6.6820 C.3         1 MOL      -0.0118
     20 N20       -51.6698  -56.9063   -7.0764 N.4         1 MOL       0.2359
     21 C21       -52.5208  -55.6829   -7.2072 C.3         1 MOL      -0.0118
     22 C22       -52.4574  -54.8379   -5.9151 C.3         1 MOL       0.0680
     23 C23       -51.7446  -57.7861   -8.2748 C.3         1 MOL      -0.0430
     24 C24       -50.6059  -53.2993   -5.3548 C.ar        1 MOL       0.0460
     25 C25       -46.5233  -43.7990   -5.1630 C.2         1 MOL       0.2222
     26 O26       -46.0933  -42.7627   -4.6613 O.2         1 MOL      -0.3907
     27 C27       -46.7225  -43.2411   -8.9097 C.ar        1 MOL      -0.0555
     28 C28       -47.0020  -42.2636   -9.8877 C.ar        1 MOL      -0.0680
     29 C29       -46.5121  -42.8960   -7.5459 C.ar        1 MOL       0.0044
     30 C31       -47.0623  -40.9048   -9.5298 C.ar        1 MOL      -0.0684
     31 C33       -46.5270  -41.5075   -7.2255 C.ar        1 MOL      -0.0555
     32 C20       -46.1316  -43.9753   -6.5783 C.3         1 MOL       0.1804
     33 C35       -46.8098  -40.5262   -8.2005 C.ar        1 MOL      -0.0680
     34 C36       -44.0578  -45.2922   -6.5693 C.3         1 MOL       0.0424
     35 O34       -44.6912  -44.0029   -6.6949 O.3         1 MOL      -0.3473
     36 H1        -48.6957  -45.6513   -0.5667 H           1 MOL       0.2389
     37 H2        -49.6176  -49.4270   -2.7339 H           1 MOL       0.2188
     38 H3        -50.8192  -50.2145   -6.7038 H           1 MOL       0.0636
     39 H4        -51.5410  -52.4450   -7.0601 H           1 MOL       0.0530
     40 H5        -49.4668  -53.6867   -3.6045 H           1 MOL       0.0530
     41 H6        -48.7461  -51.4510   -3.2353 H           1 MOL       0.0636
     42 H7        -46.8640  -46.6358   -5.1027 H           1 MOL       0.0576
     43 H8        -48.4426  -45.8705   -5.5445 H           1 MOL       0.0576
     44 H9        -48.0794  -43.5320   -2.8425 H           1 MOL       0.0708
     45 H10       -46.5087  -44.2800   -2.4090 H           1 MOL       0.0708
     46 H11       -50.6302  -56.3608   -4.5458 H           1 MOL       0.0569
     47 H12       -49.2055  -55.5011   -5.1411 H           1 MOL       0.0569
     48 H13       -49.6891  -57.4839   -6.5339 H           1 MOL       0.0834
     49 H14       -49.7814  -55.9850   -7.4766 H           1 MOL       0.0834
     50 H15       -52.0624  -57.4473   -6.3014 H           1 MOL       0.2032
     51 H16       -53.5604  -55.9714   -7.3852 H           1 MOL       0.0834
     52 H17       -52.1882  -55.0679   -8.0552 H           1 MOL       0.0834
     53 H18       -53.0574  -53.9348   -6.0486 H           1 MOL       0.0569
     54 H19       -52.9359  -55.4008   -5.1073 H           1 MOL       0.0569
     55 H20       -51.1609  -58.6927   -8.1154 H           1 MOL       0.0778
     56 H21       -51.3703  -57.2775   -9.1662 H           1 MOL       0.0778
     57 H22       -52.7792  -58.0881   -8.4512 H           1 MOL       0.0778
     58 H23       -46.6530  -44.2227   -9.2130 H           1 MOL       0.0562
     59 H24       -47.1579  -42.5367  -10.8652 H           1 MOL       0.0600
     60 H25       -47.2762  -40.2006  -10.2361 H           1 MOL       0.0561
     61 H26       -46.3168  -41.2012   -6.2712 H           1 MOL       0.0562
     62 H27       -46.5558  -44.9084   -6.9507 H           1 MOL       0.1000
     63 H28       -46.8411  -39.5434   -7.9471 H           1 MOL       0.0600
     64 H29       -44.3324  -45.7774   -5.6218 H           1 MOL       0.0528
     65 H30       -42.9680  -45.1478   -6.5892 H           1 MOL       0.0528
     66 H31       -44.3319  -45.9386   -7.4128 H           1 MOL       0.0528
@<TRIPOS>BOND
     1     1    15   1
     2     1    16   1
     3    25     1  am
     4     2     4   1
     5    13     2   1
     6     3     4   2
     7     3     5   1
     8    14     3   1
     9     5     6  am
    10     6     7   1
    11     6     8   2
    12     7     9  ar
    13     7    12  ar
    14     9    10  ar
    15    10    24  ar
    16    12    11  ar
    17    11    24  ar
    18    13    14   2
    19    16    13   1
    20    15    14   1
    21    17    18   1
    22    17    22   1
    23    24    17   1
    24    18    19   1
    25    19    20   1
    26    21    20   1
    27    20    23   1
    28    22    21   1
    29    25    26   2
    30    32    25   1
    31    27    28  ar
    32    29    27  ar
    33    28    30  ar
    34    29    31  ar
    35    29    32   1
    36    30    33  ar
    37    31    33  ar
    38    32    35   1
    39    35    34   1
    40     2    36   1
    41     5    37   1
    42     9    38   1
    43    10    39   1
    44    11    40   1
    45    12    41   1
    46    15    42   1
    47    15    43   1
    48    16    44   1
    49    16    45   1
    50    18    46   1
    51    18    47   1
    52    19    48   1
    53    19    49   1
    54    20    50   1
    55    21    51   1
    56    21    52   1
    57    22    53   1
    58    22    54   1
    59    23    55   1
    60    23    56   1
    61    23    57   1
    62    27    58   1
    63    28    59   1
    64    30    60   1
    65    31    61   1
    66    32    62   1
    67    33    63   1
    68    34    64   1
    69    34    65   1
    70    34    66   1
@<TRIPOS>SUBSTRUCTURE
     1  MOL      3

