@<TRIPOS>MOLECULE
2v7a_ligand_033
    66    70
SMALL
GAST_HUCK
****
This file was generated by PARSER (from files_GN.cpp)

@<TRIPOS>ATOM
      1 N1        -44.9684  -47.9207   -9.4850 N.am        1 MOL      -0.2534
      2 N2        -45.6954  -51.0648  -11.0635 N.pl3       1 MOL      -0.2433
      3 C3        -46.1608  -51.3512   -8.9666 C.2         1 MOL       0.1027
      4 N4        -46.1435  -51.9144  -10.1932 N.2         1 MOL      -0.2404
      5 N5        -46.6306  -52.0550   -7.9130 N.am        1 MOL      -0.2391
      6 C6        -46.7812  -51.6825   -6.6459 C.2         1 MOL       0.2181
      7 C7        -47.3335  -52.5383   -5.6879 C.ar        1 MOL       0.0412
      8 O8        -46.4678  -50.5471   -6.3113 O.2         1 MOL      -0.3816
      9 C9        -47.8407  -52.0245   -4.4642 C.ar        1 MOL      -0.0531
     10 C10       -48.4227  -52.8601   -3.5045 C.ar        1 MOL      -0.0381
     11 C11       -47.9661  -54.7823   -4.9059 C.ar        1 MOL      -0.0381
     12 C12       -47.4217  -53.9426   -5.8866 C.ar        1 MOL      -0.0531
     13 C13       -45.4032  -49.9156  -10.4470 C.2         1 MOL       0.0786
     14 C14       -45.6745  -50.0519   -9.1192 C.2         1 MOL       0.0146
     15 C15       -45.3937  -48.8018   -8.4177 C.3         1 MOL       0.0514
     16 C16       -44.9334  -48.5844  -10.7722 C.3         1 MOL       0.0897
     17 N17       -49.0023  -55.0685   -2.7425 N.pl3       1 MOL      -0.2958
     18 C18       -48.3027  -56.2494   -2.2820 C.3         1 MOL       0.0680
     19 C19       -49.1679  -57.5179   -2.5210 C.3         1 MOL      -0.0118
     20 N20       -50.5786  -57.3603   -2.0362 N.4         1 MOL       0.2359
     21 C21       -51.2100  -56.1049   -2.5511 C.3         1 MOL      -0.0118
     22 C22       -50.3549  -54.8452   -2.2740 C.3         1 MOL       0.0680
     23 C23       -50.7243  -57.5394   -0.5630 C.3         1 MOL      -0.0430
     24 C24       -48.4699  -54.2584   -3.6945 C.ar        1 MOL       0.0460
     25 C25       -44.6572  -46.6220   -9.3380 C.2         1 MOL       0.2222
     26 O26       -44.2722  -45.9994  -10.3243 O.2         1 MOL      -0.3907
     27 C27       -42.2708  -45.3770   -7.8413 C.ar        1 MOL      -0.0555
     28 C28       -41.0443  -45.5085   -7.1643 C.ar        1 MOL      -0.0680
     29 C29       -43.4537  -45.9590   -7.3245 C.ar        1 MOL       0.0044
     30 C31       -40.9876  -46.2034   -5.9440 C.ar        1 MOL      -0.0684
     31 C33       -43.3805  -46.6382   -6.0821 C.ar        1 MOL      -0.0555
     32 C20       -44.7409  -45.8650   -8.0817 C.3         1 MOL       0.1804
     33 C35       -42.1555  -46.7655   -5.3991 C.ar        1 MOL      -0.0680
     34 C36       -45.9629  -43.8058   -7.4671 C.3         1 MOL       0.0424
     35 O34       -45.0568  -44.4738   -8.3584 O.3         1 MOL      -0.3473
     36 H1        -45.6097  -51.2334  -12.0135 H           1 MOL       0.2389
     37 H2        -46.9254  -52.9512   -8.1335 H           1 MOL       0.2188
     38 H3        -47.7970  -51.0230   -4.2602 H           1 MOL       0.0636
     39 H4        -48.7693  -52.4465   -2.6333 H           1 MOL       0.0530
     40 H5        -48.0444  -55.7878   -5.0940 H           1 MOL       0.0530
     41 H6        -47.0813  -54.3851   -6.7457 H           1 MOL       0.0636
     42 H7        -46.3048  -48.4423   -7.9414 H           1 MOL       0.0576
     43 H8        -44.6038  -48.9460   -7.6772 H           1 MOL       0.0576
     44 H9        -43.9215  -48.6285  -11.1802 H           1 MOL       0.0708
     45 H10       -45.6180  -48.1155  -11.4826 H           1 MOL       0.0708
     46 H11       -48.0857  -56.1483   -1.2209 H           1 MOL       0.0569
     47 H12       -47.3392  -56.3838   -2.7801 H           1 MOL       0.0569
     48 H13       -48.6872  -58.3768   -2.0432 H           1 MOL       0.0834
     49 H14       -49.1903  -57.7285   -3.5947 H           1 MOL       0.0834
     50 H15       -51.1016  -58.1335   -2.4605 H           1 MOL       0.2032
     51 H16       -52.2095  -55.9725   -2.1260 H           1 MOL       0.0834
     52 H17       -51.3431  -56.2057   -3.6334 H           1 MOL       0.0834
     53 H18       -50.8361  -53.9988   -2.7850 H           1 MOL       0.0569
     54 H19       -50.3518  -54.6121   -1.2026 H           1 MOL       0.0569
     55 H20       -51.7779  -57.5229   -0.2861 H           1 MOL       0.0778
     56 H21       -50.2050  -56.7576   -0.0109 H           1 MOL       0.0778
     57 H22       -50.3227  -58.5056   -0.2636 H           1 MOL       0.0778
     58 H23       -42.2912  -44.8652   -8.7271 H           1 MOL       0.0562
     59 H24       -40.1954  -45.1041   -7.5635 H           1 MOL       0.0600
     60 H25       -40.0952  -46.3052   -5.4524 H           1 MOL       0.0561
     61 H26       -44.2139  -47.0641   -5.6723 H           1 MOL       0.0562
     62 H27       -45.5548  -46.2930   -7.4907 H           1 MOL       0.1000
     63 H28       -42.1137  -47.2673   -4.5098 H           1 MOL       0.0600
     64 H29       -46.0336  -42.7569   -7.7631 H           1 MOL       0.0528
     65 H30       -45.6100  -43.8513   -6.4348 H           1 MOL       0.0528
     66 H31       -46.9598  -44.2453   -7.5358 H           1 MOL       0.0528
@<TRIPOS>BOND
     1     1    15   1
     2     1    16   1
     3    25     1  am
     4     2     4   1
     5    13     2   1
     6     3     4   2
     7     3     5   1
     8    14     3   1
     9     5     6  am
    10     6     7   1
    11     6     8   2
    12     7     9  ar
    13     7    12  ar
    14     9    10  ar
    15    10    24  ar
    16    12    11  ar
    17    11    24  ar
    18    13    14   2
    19    16    13   1
    20    15    14   1
    21    17    18   1
    22    17    22   1
    23    24    17   1
    24    18    19   1
    25    19    20   1
    26    21    20   1
    27    20    23   1
    28    22    21   1
    29    25    26   2
    30    32    25   1
    31    27    28  ar
    32    29    27  ar
    33    28    30  ar
    34    29    31  ar
    35    29    32   1
    36    30    33  ar
    37    31    33  ar
    38    32    35   1
    39    35    34   1
    40     2    36   1
    41     5    37   1
    42     9    38   1
    43    10    39   1
    44    11    40   1
    45    12    41   1
    46    15    42   1
    47    15    43   1
    48    16    44   1
    49    16    45   1
    50    18    46   1
    51    18    47   1
    52    19    48   1
    53    19    49   1
    54    20    50   1
    55    21    51   1
    56    21    52   1
    57    22    53   1
    58    22    54   1
    59    23    55   1
    60    23    56   1
    61    23    57   1
    62    27    58   1
    63    28    59   1
    64    30    60   1
    65    31    61   1
    66    32    62   1
    67    33    63   1
    68    34    64   1
    69    34    65   1
    70    34    66   1
@<TRIPOS>SUBSTRUCTURE
     1  MOL      3

