@<TRIPOS>MOLECULE
2v7a_ligand_079
    66    70
SMALL
GAST_HUCK
****
This file was generated by PARSER (from files_GN.cpp)

@<TRIPOS>ATOM
      1 N1        -50.0052  -50.6477   -4.5055 N.am        1 MOL      -0.2534
      2 N2        -48.7147  -52.9229   -6.9611 N.pl3       1 MOL      -0.2433
      3 C3        -47.3400  -51.2350   -6.9498 C.2         1 MOL       0.1027
      4 N4        -47.6532  -52.4204   -7.5215 N.2         1 MOL      -0.2404
      5 N5        -46.2942  -50.5028   -7.4064 N.am        1 MOL      -0.2391
      6 C6        -45.7957  -49.3505   -6.9665 C.2         1 MOL       0.2181
      7 C7        -44.7505  -48.7042   -7.6419 C.ar        1 MOL       0.0412
      8 O8        -46.2162  -48.8575   -5.9250 O.2         1 MOL      -0.3816
      9 C9        -44.5412  -48.8731   -9.0358 C.ar        1 MOL      -0.0531
     10 C10       -43.4992  -48.2084   -9.7071 C.ar        1 MOL      -0.0381
     11 C11       -42.8384  -47.1478   -7.6432 C.ar        1 MOL      -0.0381
     12 C12       -43.8674  -47.8258   -6.9656 C.ar        1 MOL      -0.0531
     13 C13       -49.1580  -52.0767   -6.0262 C.2         1 MOL       0.0786
     14 C14       -48.3054  -51.0170   -5.9645 C.2         1 MOL       0.0146
     15 C15       -48.7687  -50.0562   -4.9769 C.3         1 MOL       0.0514
     16 C16       -50.2728  -51.9378   -5.1096 C.3         1 MOL       0.0897
     17 N17       -41.6124  -46.6541   -9.6959 N.pl3       1 MOL      -0.2958
     18 C18       -40.8452  -47.2510  -10.7713 C.3         1 MOL       0.0680
     19 C19       -41.0118  -46.4323  -12.0723 C.3         1 MOL      -0.0118
     20 N20       -40.6910  -44.9869  -11.8505 N.4         1 MOL       0.2359
     21 C21       -41.4468  -44.4210  -10.6884 C.3         1 MOL      -0.0118
     22 C22       -41.2567  -45.2771   -9.4037 C.3         1 MOL       0.0680
     23 C23       -40.8402  -44.1717  -13.0911 C.3         1 MOL      -0.0430
     24 C24       -42.6208  -47.3196   -9.0350 C.ar        1 MOL       0.0460
     25 C25       -50.8485  -50.0876   -3.6227 C.2         1 MOL       0.2222
     26 O26       -51.8845  -50.6913   -3.3593 O.2         1 MOL      -0.3907
     27 C27       -50.3581  -49.8625   -0.6389 C.ar        1 MOL      -0.0555
     28 C28       -49.7259  -49.9493    0.6144 C.ar        1 MOL      -0.0680
     29 C29       -49.8733  -48.9931   -1.6508 C.ar        1 MOL       0.0044
     30 C31       -48.5969  -49.1622    0.8884 C.ar        1 MOL      -0.0684
     31 C33       -48.7180  -48.2241   -1.3605 C.ar        1 MOL      -0.0555
     32 C20       -50.6607  -48.8182   -2.9108 C.3         1 MOL       0.1804
     33 C35       -48.0883  -48.3038   -0.1027 C.ar        1 MOL      -0.0680
     34 C36       -50.8925  -47.3277   -4.8564 C.3         1 MOL       0.0424
     35 O34       -50.0992  -47.7934   -3.7612 O.3         1 MOL      -0.3473
     36 H1        -49.1299  -53.7678   -7.1922 H           1 MOL       0.2389
     37 H2        -45.8392  -50.8937   -8.1648 H           1 MOL       0.2188
     38 H3        -45.1701  -49.4594   -9.5899 H           1 MOL       0.0636
     39 H4        -43.4332  -48.3284  -10.7195 H           1 MOL       0.0530
     40 H5        -42.2061  -46.5672   -7.0889 H           1 MOL       0.0530
     41 H6        -43.9537  -47.6800   -5.9551 H           1 MOL       0.0636
     42 H7        -48.0424  -49.9475   -4.1668 H           1 MOL       0.0576
     43 H8        -48.9291  -49.1057   -5.4893 H           1 MOL       0.0576
     44 H9        -51.2192  -51.9381   -5.6579 H           1 MOL       0.0708
     45 H10       -50.2581  -52.7463   -4.3756 H           1 MOL       0.0708
     46 H11       -41.0916  -48.2967  -10.9576 H           1 MOL       0.0569
     47 H12       -39.7882  -47.2383  -10.4904 H           1 MOL       0.0569
     48 H13       -42.0401  -46.5475  -12.4432 H           1 MOL       0.0834
     49 H14       -40.3324  -46.8498  -12.8218 H           1 MOL       0.0834
     50 H15       -39.7004  -44.9446  -11.5954 H           1 MOL       0.2032
     51 H16       -42.5132  -44.3723  -10.9252 H           1 MOL       0.0834
     52 H17       -41.0892  -43.4089  -10.4791 H           1 MOL       0.0834
     53 H18       -40.2139  -45.2255   -9.0834 H           1 MOL       0.0569
     54 H19       -41.8666  -44.8182   -8.6225 H           1 MOL       0.0569
     55 H20       -40.6172  -43.1243  -12.8947 H           1 MOL       0.0778
     56 H21       -41.8529  -44.2390  -13.4950 H           1 MOL       0.0778
     57 H22       -40.1372  -44.5177  -13.8504 H           1 MOL       0.0778
     58 H23       -51.1962  -50.4273   -0.7954 H           1 MOL       0.0562
     59 H24       -50.1014  -50.5718    1.3359 H           1 MOL       0.0600
     60 H25       -48.1487  -49.2033    1.8036 H           1 MOL       0.0561
     61 H26       -48.3346  -47.5692   -2.0453 H           1 MOL       0.0562
     62 H27       -51.6333  -48.4475   -2.5633 H           1 MOL       0.1000
     63 H28       -47.2668  -47.7183    0.0967 H           1 MOL       0.0600
     64 H29       -50.3028  -46.6206   -5.4357 H           1 MOL       0.0528
     65 H30       -51.7796  -46.8146   -4.4845 H           1 MOL       0.0528
     66 H31       -51.1866  -48.1507   -5.5059 H           1 MOL       0.0528
@<TRIPOS>BOND
     1     1    15   1
     2     1    16   1
     3    25     1  am
     4     2     4   1
     5    13     2   1
     6     3     4   2
     7     3     5   1
     8    14     3   1
     9     5     6  am
    10     6     7   1
    11     6     8   2
    12     7     9  ar
    13     7    12  ar
    14     9    10  ar
    15    10    24  ar
    16    12    11  ar
    17    11    24  ar
    18    13    14   2
    19    16    13   1
    20    15    14   1
    21    17    18   1
    22    17    22   1
    23    24    17   1
    24    18    19   1
    25    19    20   1
    26    21    20   1
    27    20    23   1
    28    22    21   1
    29    25    26   2
    30    32    25   1
    31    27    28  ar
    32    29    27  ar
    33    28    30  ar
    34    29    31  ar
    35    29    32   1
    36    30    33  ar
    37    31    33  ar
    38    32    35   1
    39    35    34   1
    40     2    36   1
    41     5    37   1
    42     9    38   1
    43    10    39   1
    44    11    40   1
    45    12    41   1
    46    15    42   1
    47    15    43   1
    48    16    44   1
    49    16    45   1
    50    18    46   1
    51    18    47   1
    52    19    48   1
    53    19    49   1
    54    20    50   1
    55    21    51   1
    56    21    52   1
    57    22    53   1
    58    22    54   1
    59    23    55   1
    60    23    56   1
    61    23    57   1
    62    27    58   1
    63    28    59   1
    64    30    60   1
    65    31    61   1
    66    32    62   1
    67    33    63   1
    68    34    64   1
    69    34    65   1
    70    34    66   1
@<TRIPOS>SUBSTRUCTURE
     1  MOL      3

