@<TRIPOS>MOLECULE
2v7a_ligand_080
    66    70
SMALL
GAST_HUCK
****
This file was generated by PARSER (from files_GN.cpp)

@<TRIPOS>ATOM
      1 N1        -50.8900  -44.6716   -0.6375 N.am        1 MOL      -0.2534
      2 N2        -52.9449  -44.8065   -3.5843 N.pl3       1 MOL      -0.2433
      3 C3        -51.9909  -46.7536   -3.4200 C.2         1 MOL       0.1027
      4 N4        -52.8582  -45.9883   -4.1230 N.2         1 MOL      -0.2404
      5 N5        -51.6530  -48.0511   -3.6018 N.am        1 MOL      -0.2391
      6 C6        -52.1098  -48.8833   -4.5355 C.2         1 MOL       0.2181
      7 C7        -51.7555  -50.2411   -4.5790 C.ar        1 MOL       0.0412
      8 O8        -52.8805  -48.4529   -5.3915 O.2         1 MOL      -0.3816
      9 C9        -51.1763  -50.9118   -3.4707 C.ar        1 MOL      -0.0531
     10 C10       -50.8697  -52.2862   -3.5217 C.ar        1 MOL      -0.0381
     11 C11       -51.6590  -52.3859   -5.7940 C.ar        1 MOL      -0.0381
     12 C12       -51.9921  -51.0213   -5.7402 C.ar        1 MOL      -0.0531
     13 C13       -52.1553  -44.7529   -2.5037 C.2         1 MOL       0.0786
     14 C14       -51.5239  -45.9537   -2.3881 C.2         1 MOL       0.0146
     15 C15       -50.6494  -45.9731   -1.2278 C.3         1 MOL       0.0514
     16 C16       -51.8018  -43.8576   -1.4159 C.3         1 MOL       0.0897
     17 N17       -50.7719  -54.4067   -4.7524 N.pl3       1 MOL      -0.2958
     18 C18       -50.3283  -55.0453   -5.9828 C.3         1 MOL       0.0680
     19 C19       -48.9584  -55.7441   -5.7615 C.3         1 MOL      -0.0118
     20 N20       -48.9422  -56.6602   -4.5797 N.4         1 MOL       0.2359
     21 C21       -49.4744  -55.9834   -3.3559 C.3         1 MOL      -0.0118
     22 C22       -50.8448  -55.3011   -3.6060 C.3         1 MOL       0.0680
     23 C23       -49.5484  -57.9930   -4.8596 C.3         1 MOL      -0.0430
     24 C24       -51.0909  -53.0659   -4.6859 C.ar        1 MOL       0.0460
     25 C25       -50.3748  -44.2526    0.5289 C.2         1 MOL       0.2222
     26 O26       -50.7499  -43.1769    0.9904 O.2         1 MOL      -0.3907
     27 C27       -47.4058  -43.7731    0.4286 C.ar        1 MOL      -0.0555
     28 C28       -46.2459  -42.9914    0.5760 C.ar        1 MOL      -0.0680
     29 C29       -48.1703  -44.1798    1.5542 C.ar        1 MOL       0.0044
     30 C31       -45.8164  -42.6099    1.8601 C.ar        1 MOL      -0.0684
     31 C33       -47.7184  -43.7749    2.8385 C.ar        1 MOL      -0.0555
     32 C20       -49.4124  -44.9948    1.3528 C.3         1 MOL       0.1804
     33 C35       -46.5499  -43.0087    2.9918 C.ar        1 MOL      -0.0680
     34 C36       -51.0255  -46.4242    2.5657 C.3         1 MOL       0.0424
     35 O34       -50.0237  -45.3870    2.6079 O.3         1 MOL      -0.3473
     36 H1        -53.5170  -44.0911   -3.9038 H           1 MOL       0.2389
     37 H2        -51.0175  -48.4092   -2.9637 H           1 MOL       0.2188
     38 H3        -50.9690  -50.4079   -2.6050 H           1 MOL       0.0636
     39 H4        -50.4097  -52.6976   -2.7076 H           1 MOL       0.0530
     40 H5        -51.9016  -52.8955   -6.6460 H           1 MOL       0.0530
     41 H6        -52.4170  -50.6008   -6.5721 H           1 MOL       0.0636
     42 H7        -50.9449  -46.7819   -0.5561 H           1 MOL       0.0576
     43 H8        -49.6081  -46.0860   -1.5406 H           1 MOL       0.0576
     44 H9        -51.3140  -42.9588   -1.8038 H           1 MOL       0.0708
     45 H10       -52.6998  -43.5931   -0.8487 H           1 MOL       0.0708
     46 H11       -50.1799  -54.3469   -6.8098 H           1 MOL       0.0569
     47 H12       -51.0715  -55.7790   -6.3003 H           1 MOL       0.0569
     48 H13       -48.2011  -54.9706   -5.5987 H           1 MOL       0.0834
     49 H14       -48.6690  -56.2773   -6.6732 H           1 MOL       0.0834
     50 H15       -47.9563  -56.8527   -4.4004 H           1 MOL       0.2032
     51 H16       -48.7600  -55.2177   -3.0432 H           1 MOL       0.0834
     52 H17       -49.5636  -56.6935   -2.5289 H           1 MOL       0.0834
     53 H18       -51.5882  -56.0723   -3.8165 H           1 MOL       0.0569
     54 H19       -51.1814  -54.8219   -2.6839 H           1 MOL       0.0569
     55 H20       -49.0031  -58.4850   -5.6682 H           1 MOL       0.0778
     56 H21       -50.5994  -57.9144   -5.1485 H           1 MOL       0.0778
     57 H22       -49.4771  -58.6384   -3.9816 H           1 MOL       0.0778
     58 H23       -47.6951  -44.0418   -0.5149 H           1 MOL       0.0562
     59 H24       -45.7145  -42.6974   -0.2482 H           1 MOL       0.0600
     60 H25       -44.9750  -42.0426    1.9728 H           1 MOL       0.0561
     61 H26       -48.2312  -44.0450    3.6815 H           1 MOL       0.0562
     62 H27       -49.0737  -45.9053    0.8577 H           1 MOL       0.1000
     63 H28       -46.2344  -42.7319    3.9253 H           1 MOL       0.0600
     64 H29       -51.3838  -46.6033    3.5826 H           1 MOL       0.0528
     65 H30       -50.6058  -47.3581    2.1801 H           1 MOL       0.0528
     66 H31       -51.8799  -46.1288    1.9495 H           1 MOL       0.0528
@<TRIPOS>BOND
     1     1    15   1
     2     1    16   1
     3    25     1  am
     4     2     4   1
     5    13     2   1
     6     3     4   2
     7     3     5   1
     8    14     3   1
     9     5     6  am
    10     6     7   1
    11     6     8   2
    12     7     9  ar
    13     7    12  ar
    14     9    10  ar
    15    10    24  ar
    16    12    11  ar
    17    11    24  ar
    18    13    14   2
    19    16    13   1
    20    15    14   1
    21    17    18   1
    22    17    22   1
    23    24    17   1
    24    18    19   1
    25    19    20   1
    26    21    20   1
    27    20    23   1
    28    22    21   1
    29    25    26   2
    30    32    25   1
    31    27    28  ar
    32    29    27  ar
    33    28    30  ar
    34    29    31  ar
    35    29    32   1
    36    30    33  ar
    37    31    33  ar
    38    32    35   1
    39    35    34   1
    40     2    36   1
    41     5    37   1
    42     9    38   1
    43    10    39   1
    44    11    40   1
    45    12    41   1
    46    15    42   1
    47    15    43   1
    48    16    44   1
    49    16    45   1
    50    18    46   1
    51    18    47   1
    52    19    48   1
    53    19    49   1
    54    20    50   1
    55    21    51   1
    56    21    52   1
    57    22    53   1
    58    22    54   1
    59    23    55   1
    60    23    56   1
    61    23    57   1
    62    27    58   1
    63    28    59   1
    64    30    60   1
    65    31    61   1
    66    32    62   1
    67    33    63   1
    68    34    64   1
    69    34    65   1
    70    34    66   1
@<TRIPOS>SUBSTRUCTURE
     1  MOL      3

