@<TRIPOS>MOLECULE
2v7a_ligand_083
    66    70
SMALL
GAST_HUCK
****
This file was generated by PARSER (from files_GN.cpp)

@<TRIPOS>ATOM
      1 N1        -48.0181  -46.0883   -1.3882 N.am        1 MOL      -0.2534
      2 N2        -48.0753  -47.8448    1.7522 N.pl3       1 MOL      -0.2433
      3 C3        -49.3475  -48.9959    0.4192 C.2         1 MOL       0.1027
      4 N4        -48.8170  -48.9125    1.6560 N.2         1 MOL      -0.2404
      5 N5        -50.1775  -50.0160    0.0876 N.am        1 MOL      -0.2391
      6 C6        -50.8942  -50.2101   -1.0144 C.2         1 MOL       0.2181
      7 C7        -51.7288  -51.3228   -1.1183 C.ar        1 MOL       0.0412
      8 O8        -50.9206  -49.3753   -1.9133 O.2         1 MOL      -0.3816
      9 C9        -53.0386  -51.2062   -1.6361 C.ar        1 MOL      -0.0531
     10 C10       -53.8976  -52.3196   -1.7009 C.ar        1 MOL      -0.0381
     11 C11       -52.1325  -53.7289   -0.8353 C.ar        1 MOL      -0.0381
     12 C12       -51.2942  -52.6069   -0.7071 C.ar        1 MOL      -0.0531
     13 C13       -48.0767  -47.1994    0.5876 C.2         1 MOL       0.0786
     14 C14       -48.8687  -47.8899   -0.2840 C.2         1 MOL       0.0146
     15 C15       -48.8870  -47.2294   -1.5791 C.3         1 MOL       0.0514
     16 C16       -47.4953  -46.0189   -0.0353 C.3         1 MOL       0.0897
     17 N17       -54.2837  -54.7059   -1.4215 N.pl3       1 MOL      -0.2958
     18 C18       -54.0326  -55.7796   -2.3685 C.3         1 MOL       0.0680
     19 C19       -55.2518  -55.9279   -3.3190 C.3         1 MOL      -0.0118
     20 N20       -56.5219  -56.0950   -2.5458 N.4         1 MOL       0.2359
     21 C21       -56.7283  -54.9869   -1.5631 C.3         1 MOL      -0.0118
     22 C22       -55.4959  -54.8571   -0.6361 C.3         1 MOL       0.0680
     23 C23       -57.7100  -56.3016   -3.4200 C.3         1 MOL      -0.0430
     24 C24       -53.4594  -53.6132   -1.3182 C.ar        1 MOL       0.0460
     25 C25       -47.6906  -45.1855   -2.3288 C.2         1 MOL       0.2222
     26 O26       -46.9508  -44.2631   -1.9942 O.2         1 MOL      -0.3907
     27 C27       -46.0736  -44.6934   -5.2426 C.ar        1 MOL      -0.0555
     28 C28       -44.9350  -45.0987   -5.9608 C.ar        1 MOL      -0.0680
     29 C29       -46.8894  -45.6357   -4.5700 C.ar        1 MOL       0.0044
     30 C31       -44.5915  -46.4621   -6.0231 C.ar        1 MOL      -0.0684
     31 C33       -46.5289  -47.0050   -4.6484 C.ar        1 MOL      -0.0555
     32 C20       -48.0614  -45.1860   -3.7527 C.3         1 MOL       0.1804
     33 C35       -45.3944  -47.4141   -5.3751 C.ar        1 MOL      -0.0680
     34 C36       -50.5080  -45.3688   -3.9935 C.3         1 MOL       0.0424
     35 O34       -49.2100  -45.9807   -4.1240 O.3         1 MOL      -0.3473
     36 H1        -47.5931  -47.5665    2.5491 H           1 MOL       0.2389
     37 H2        -50.2927  -50.6796    0.7855 H           1 MOL       0.2188
     38 H3        -53.3953  -50.3003   -1.9495 H           1 MOL       0.0636
     39 H4        -54.8319  -52.1843   -2.0874 H           1 MOL       0.0530
     40 H5        -51.7802  -54.6333   -0.5142 H           1 MOL       0.0530
     41 H6        -50.3516  -52.7391   -0.3301 H           1 MOL       0.0636
     42 H7        -48.5036  -47.9116   -2.3405 H           1 MOL       0.0576
     43 H8        -49.9070  -46.9168   -1.8065 H           1 MOL       0.0576
     44 H9        -47.8282  -45.1163    0.4853 H           1 MOL       0.0708
     45 H10       -46.4032  -46.0927   -0.0227 H           1 MOL       0.0708
     46 H11       -53.8712  -56.7161   -1.8263 H           1 MOL       0.0569
     47 H12       -53.1520  -55.6021   -2.9928 H           1 MOL       0.0569
     48 H13       -55.0892  -56.7984   -3.9601 H           1 MOL       0.0834
     49 H14       -55.3133  -55.0414   -3.9605 H           1 MOL       0.0834
     50 H15       -56.4168  -56.9525   -2.0002 H           1 MOL       0.2032
     51 H16       -57.6077  -55.1934   -0.9451 H           1 MOL       0.0834
     52 H17       -56.8903  -54.0346   -2.0793 H           1 MOL       0.0834
     53 H18       -55.6577  -54.0420    0.0733 H           1 MOL       0.0569
     54 H19       -55.4092  -55.7701   -0.0382 H           1 MOL       0.0569
     55 H20       -57.5488  -57.1497   -4.0882 H           1 MOL       0.0778
     56 H21       -57.9191  -55.4140   -4.0226 H           1 MOL       0.0778
     57 H22       -58.5880  -56.5268   -2.8103 H           1 MOL       0.0778
     58 H23       -46.2906  -43.6945   -5.2004 H           1 MOL       0.0562
     59 H24       -44.3487  -44.4028   -6.4247 H           1 MOL       0.0600
     60 H25       -43.7650  -46.7562   -6.5433 H           1 MOL       0.0561
     61 H26       -47.0910  -47.7170   -4.1742 H           1 MOL       0.0562
     62 H27       -48.2796  -44.1479   -4.0217 H           1 MOL       0.1000
     63 H28       -45.1464  -48.4048   -5.4189 H           1 MOL       0.0600
     64 H29       -51.2660  -46.1103   -4.2421 H           1 MOL       0.0528
     65 H30       -50.6014  -44.5363   -4.6916 H           1 MOL       0.0528
     66 H31       -50.6856  -45.0100   -2.9773 H           1 MOL       0.0528
@<TRIPOS>BOND
     1     1    15   1
     2     1    16   1
     3    25     1  am
     4     2     4   1
     5    13     2   1
     6     3     4   2
     7     3     5   1
     8    14     3   1
     9     5     6  am
    10     6     7   1
    11     6     8   2
    12     7     9  ar
    13     7    12  ar
    14     9    10  ar
    15    10    24  ar
    16    12    11  ar
    17    11    24  ar
    18    13    14   2
    19    16    13   1
    20    15    14   1
    21    17    18   1
    22    17    22   1
    23    24    17   1
    24    18    19   1
    25    19    20   1
    26    21    20   1
    27    20    23   1
    28    22    21   1
    29    25    26   2
    30    32    25   1
    31    27    28  ar
    32    29    27  ar
    33    28    30  ar
    34    29    31  ar
    35    29    32   1
    36    30    33  ar
    37    31    33  ar
    38    32    35   1
    39    35    34   1
    40     2    36   1
    41     5    37   1
    42     9    38   1
    43    10    39   1
    44    11    40   1
    45    12    41   1
    46    15    42   1
    47    15    43   1
    48    16    44   1
    49    16    45   1
    50    18    46   1
    51    18    47   1
    52    19    48   1
    53    19    49   1
    54    20    50   1
    55    21    51   1
    56    21    52   1
    57    22    53   1
    58    22    54   1
    59    23    55   1
    60    23    56   1
    61    23    57   1
    62    27    58   1
    63    28    59   1
    64    30    60   1
    65    31    61   1
    66    32    62   1
    67    33    63   1
    68    34    64   1
    69    34    65   1
    70    34    66   1
@<TRIPOS>SUBSTRUCTURE
     1  MOL      3

