@<TRIPOS>MOLECULE
2v7a_ligand_073
    66    70
SMALL
GAST_HUCK
****
This file was generated by PARSER (from files_GN.cpp)

@<TRIPOS>ATOM
      1 N1        -45.7947  -43.5560   -2.9630 N.am        1 MOL      -0.2534
      2 N2        -45.6567  -44.8980    0.3535 N.pl3       1 MOL      -0.2433
      3 C3        -47.2101  -46.0267   -0.6471 C.2         1 MOL       0.1027
      4 N4        -46.4724  -45.8984    0.4787 N.2         1 MOL      -0.2404
      5 N5        -48.1078  -47.0289   -0.7588 N.am        1 MOL      -0.2391
      6 C6        -48.9699  -47.2782   -1.7356 C.2         1 MOL       0.2181
      7 C7        -49.8064  -48.3809   -1.6530 C.ar        1 MOL       0.0412
      8 O8        -49.1059  -46.5001   -2.6752 O.2         1 MOL      -0.3816
      9 C9        -51.1451  -48.3147   -2.1071 C.ar        1 MOL      -0.0531
     10 C10       -52.0082  -49.4120   -1.9822 C.ar        1 MOL      -0.0381
     11 C11       -50.2206  -50.7160   -1.0123 C.ar        1 MOL      -0.0381
     12 C12       -49.3621  -49.6098   -1.1068 C.ar        1 MOL      -0.0531
     13 C13       -45.8076  -44.3649   -0.8575 C.2         1 MOL       0.0786
     14 C14       -46.7808  -45.0328   -1.5321 C.2         1 MOL       0.0146
     15 C15       -46.8841  -44.5050   -2.9011 C.3         1 MOL       0.0514
     16 C16       -45.1473  -43.3770   -1.6768 C.3         1 MOL       0.0897
     17 N17       -52.4287  -51.7247   -1.3133 N.pl3       1 MOL      -0.2958
     18 C18       -51.9888  -53.1044   -1.4673 C.3         1 MOL       0.0680
     19 C19       -52.8009  -53.7990   -2.5942 C.3         1 MOL      -0.0118
     20 N20       -54.2753  -53.6347   -2.3986 N.4         1 MOL       0.2359
     21 C21       -54.6644  -52.2032   -2.2159 C.3         1 MOL      -0.0118
     22 C22       -53.8536  -51.5808   -1.0562 C.3         1 MOL       0.0680
     23 C23       -55.0674  -54.3031   -3.4680 C.3         1 MOL      -0.0430
     24 C24       -51.5785  -50.6517   -1.4317 C.ar        1 MOL       0.0460
     25 C25       -45.3465  -42.9234   -4.0604 C.2         1 MOL       0.2222
     26 O26       -44.3566  -42.2034   -3.9206 O.2         1 MOL      -0.3907
     27 C27       -46.4516  -41.6769   -7.5165 C.ar        1 MOL      -0.0555
     28 C28       -46.4561  -40.5084   -8.3001 C.ar        1 MOL      -0.0680
     29 C29       -45.9912  -41.6702   -6.1694 C.ar        1 MOL       0.0044
     30 C31       -46.0430  -39.2839   -7.7417 C.ar        1 MOL      -0.0684
     31 C33       -45.5927  -40.4170   -5.6380 C.ar        1 MOL      -0.0555
     32 C20       -45.8449  -42.9836   -5.4453 C.3         1 MOL       0.1804
     33 C35       -45.6248  -39.2382   -6.4043 C.ar        1 MOL      -0.0680
     34 C36       -44.9603  -45.1467   -6.2462 C.3         1 MOL       0.0424
     35 O34       -44.8740  -43.7080   -6.2400 O.3         1 MOL      -0.3473
     36 H1        -44.9928  -44.6118    0.9960 H           1 MOL       0.2389
     37 H2        -48.1388  -47.6366   -0.0033 H           1 MOL       0.2188
     38 H3        -51.5120  -47.4492   -2.5154 H           1 MOL       0.0636
     39 H4        -52.9554  -49.3111   -2.3518 H           1 MOL       0.0530
     40 H5        -49.8547  -51.5639   -0.5740 H           1 MOL       0.0530
     41 H6        -48.3973  -49.7118   -0.7770 H           1 MOL       0.0636
     42 H7        -46.7451  -45.3157   -3.6223 H           1 MOL       0.0576
     43 H8        -47.8538  -44.0225   -3.0528 H           1 MOL       0.0576
     44 H9        -45.2989  -42.3744   -1.2722 H           1 MOL       0.0708
     45 H10       -44.0844  -43.6127   -1.7138 H           1 MOL       0.0708
     46 H11       -52.1343  -53.6401   -0.5257 H           1 MOL       0.0569
     47 H12       -50.9344  -53.1966   -1.7384 H           1 MOL       0.0569
     48 H13       -52.5475  -54.8632   -2.5939 H           1 MOL       0.0834
     49 H14       -52.4972  -53.3771   -3.5585 H           1 MOL       0.0834
     50 H15       -54.5073  -54.1124   -1.5252 H           1 MOL       0.2032
     51 H16       -55.7270  -52.1350   -1.9699 H           1 MOL       0.0834
     52 H17       -54.4842  -51.6293   -3.1301 H           1 MOL       0.0834
     53 H18       -54.1770  -50.5508   -0.9012 H           1 MOL       0.0569
     54 H19       -54.0965  -52.1093   -0.1308 H           1 MOL       0.0569
     55 H20       -54.8207  -55.3654   -3.5134 H           1 MOL       0.0778
     56 H21       -54.8721  -53.8549   -4.4459 H           1 MOL       0.0778
     57 H22       -56.1353  -54.2225   -3.2537 H           1 MOL       0.0778
     58 H23       -46.7349  -42.5585   -7.9557 H           1 MOL       0.0562
     59 H24       -46.7658  -40.5428   -9.2777 H           1 MOL       0.0600
     60 H25       -46.0490  -38.4337   -8.3086 H           1 MOL       0.0561
     61 H26       -45.2200  -40.3622   -4.6876 H           1 MOL       0.0562
     62 H27       -46.8221  -43.4703   -5.4774 H           1 MOL       0.1000
     63 H28       -45.3234  -38.3488   -5.9953 H           1 MOL       0.0600
     64 H29       -44.1478  -45.5390   -6.8630 H           1 MOL       0.0528
     65 H30       -45.9086  -45.4670   -6.6869 H           1 MOL       0.0528
     66 H31       -44.8678  -45.5574   -5.2352 H           1 MOL       0.0528
@<TRIPOS>BOND
     1     1    15   1
     2     1    16   1
     3    25     1  am
     4     2     4   1
     5    13     2   1
     6     3     4   2
     7     3     5   1
     8    14     3   1
     9     5     6  am
    10     6     7   1
    11     6     8   2
    12     7     9  ar
    13     7    12  ar
    14     9    10  ar
    15    10    24  ar
    16    12    11  ar
    17    11    24  ar
    18    13    14   2
    19    16    13   1
    20    15    14   1
    21    17    18   1
    22    17    22   1
    23    24    17   1
    24    18    19   1
    25    19    20   1
    26    21    20   1
    27    20    23   1
    28    22    21   1
    29    25    26   2
    30    32    25   1
    31    27    28  ar
    32    29    27  ar
    33    28    30  ar
    34    29    31  ar
    35    29    32   1
    36    30    33  ar
    37    31    33  ar
    38    32    35   1
    39    35    34   1
    40     2    36   1
    41     5    37   1
    42     9    38   1
    43    10    39   1
    44    11    40   1
    45    12    41   1
    46    15    42   1
    47    15    43   1
    48    16    44   1
    49    16    45   1
    50    18    46   1
    51    18    47   1
    52    19    48   1
    53    19    49   1
    54    20    50   1
    55    21    51   1
    56    21    52   1
    57    22    53   1
    58    22    54   1
    59    23    55   1
    60    23    56   1
    61    23    57   1
    62    27    58   1
    63    28    59   1
    64    30    60   1
    65    31    61   1
    66    32    62   1
    67    33    63   1
    68    34    64   1
    69    34    65   1
    70    34    66   1
@<TRIPOS>SUBSTRUCTURE
     1  MOL      3

