@<TRIPOS>MOLECULE
2v7a_ligand_067
    66    70
SMALL
GAST_HUCK
****
This file was generated by PARSER (from files_GN.cpp)

@<TRIPOS>ATOM
      1 N1        -43.9861  -46.1410   -7.9207 N.am        1 MOL      -0.2534
      2 N2        -46.2767  -44.1762   -5.9591 N.pl3       1 MOL      -0.2433
      3 C3        -46.3253  -46.1738   -5.1040 C.2         1 MOL       0.1027
      4 N4        -46.7836  -44.9056   -5.0077 N.2         1 MOL      -0.2404
      5 N5        -46.6833  -47.1208   -4.2056 N.am        1 MOL      -0.2391
      6 C6        -46.3576  -48.4133   -4.1486 C.2         1 MOL       0.2181
      7 C7        -46.8071  -49.2276   -3.1007 C.ar        1 MOL       0.0412
      8 O8        -45.6856  -48.9205   -5.0366 O.2         1 MOL      -0.3816
      9 C9        -47.1964  -48.6895   -1.8505 C.ar        1 MOL      -0.0531
     10 C10       -47.6555  -49.5113   -0.8096 C.ar        1 MOL      -0.0381
     11 C11       -47.3316  -51.4547   -2.1972 C.ar        1 MOL      -0.0381
     12 C12       -46.8837  -50.6354   -3.2441 C.ar        1 MOL      -0.0531
     13 C13       -45.4542  -44.9250   -6.7046 C.2         1 MOL       0.0786
     14 C14       -45.4799  -46.1933   -6.2120 C.2         1 MOL       0.0146
     15 C15       -44.5720  -47.0469   -6.9618 C.3         1 MOL       0.0514
     16 C16       -44.5198  -44.7995   -7.8079 C.3         1 MOL       0.0897
     17 N17       -48.1523  -51.7353    0.0944 N.pl3       1 MOL      -0.2958
     18 C18       -49.1694  -51.3363    1.0575 C.3         1 MOL       0.0680
     19 C19       -48.5944  -51.3698    2.4954 C.3         1 MOL      -0.0118
     20 N20       -48.0700  -52.7373    2.7917 N.4         1 MOL       0.2359
     21 C21       -47.0466  -53.1614    1.7873 C.3         1 MOL      -0.0118
     22 C22       -47.6002  -53.0630    0.3396 C.3         1 MOL       0.0680
     23 C23       -47.5950  -52.8770    4.1940 C.3         1 MOL      -0.0430
     24 C24       -47.7295  -50.9255   -0.9408 C.ar        1 MOL       0.0460
     25 C25       -43.0132  -46.4670   -8.7931 C.2         1 MOL       0.2222
     26 O26       -42.5261  -45.5736   -9.4799 O.2         1 MOL      -0.3907
     27 C27       -42.6136  -49.6235   -7.2360 C.ar        1 MOL      -0.0555
     28 C28       -42.1864  -50.1567   -6.0088 C.ar        1 MOL      -0.0680
     29 C29       -41.9741  -48.4896   -7.8009 C.ar        1 MOL       0.0044
     30 C31       -41.0789  -49.6078   -5.3458 C.ar        1 MOL      -0.0684
     31 C33       -40.8463  -47.9595   -7.1254 C.ar        1 MOL      -0.0555
     32 C20       -42.4809  -47.8212   -9.0426 C.3         1 MOL       0.1804
     33 C35       -40.3991  -48.5164   -5.9115 C.ar        1 MOL      -0.0680
     34 C36       -43.7312  -48.3449  -11.1051 C.3         1 MOL       0.0424
     35 O34       -43.5005  -48.6064   -9.7105 O.3         1 MOL      -0.3473
     36 H1        -46.4450  -43.2299   -6.0859 H           1 MOL       0.2389
     37 H2        -47.2698  -46.7994   -3.5064 H           1 MOL       0.2188
     38 H3        -47.1193  -47.6849   -1.6650 H           1 MOL       0.0636
     39 H4        -47.8633  -49.0582    0.0807 H           1 MOL       0.0530
     40 H5        -47.4188  -52.4535   -2.3936 H           1 MOL       0.0530
     41 H6        -46.6305  -51.0817   -4.1316 H           1 MOL       0.0636
     42 H7        -43.8348  -47.4214   -6.2547 H           1 MOL       0.0576
     43 H8        -45.1161  -47.8591   -7.4480 H           1 MOL       0.0576
     44 H9        -45.0388  -44.4889   -8.7154 H           1 MOL       0.0708
     45 H10       -43.7379  -44.0902   -7.5426 H           1 MOL       0.0708
     46 H11       -50.0018  -52.0468    1.0015 H           1 MOL       0.0569
     47 H12       -49.6130  -50.3575    0.8680 H           1 MOL       0.0569
     48 H13       -49.3921  -51.1130    3.1955 H           1 MOL       0.0834
     49 H14       -47.8017  -50.6207    2.5891 H           1 MOL       0.0834
     50 H15       -48.8586  -53.3813    2.6907 H           1 MOL       0.2032
     51 H16       -46.7531  -54.1991    1.9717 H           1 MOL       0.0834
     52 H17       -46.1515  -52.5366    1.8718 H           1 MOL       0.0834
     53 H18       -46.7702  -53.3211   -0.3220 H           1 MOL       0.0569
     54 H19       -48.3851  -53.8118    0.1989 H           1 MOL       0.0569
     55 H20       -48.3975  -52.6383    4.8942 H           1 MOL       0.0778
     56 H21       -46.7524  -52.2108    4.3860 H           1 MOL       0.0778
     57 H22       -47.2834  -53.9047    4.3914 H           1 MOL       0.0778
     58 H23       -43.4242  -50.0515   -7.6914 H           1 MOL       0.0562
     59 H24       -42.6823  -50.9476   -5.5992 H           1 MOL       0.0600
     60 H25       -40.7779  -49.9946   -4.4531 H           1 MOL       0.0561
     61 H26       -40.3492  -47.1505   -7.5101 H           1 MOL       0.0562
     62 H27       -41.6046  -47.7672   -9.7060 H           1 MOL       0.1000
     63 H28       -39.5846  -48.1205   -5.4403 H           1 MOL       0.0600
     64 H29       -44.5169  -49.0123  -11.4536 H           1 MOL       0.0528
     65 H30       -42.8322  -48.5417  -11.6882 H           1 MOL       0.0528
     66 H31       -44.0530  -47.3171  -11.2656 H           1 MOL       0.0528
@<TRIPOS>BOND
     1     1    15   1
     2     1    16   1
     3    25     1  am
     4     2     4   1
     5    13     2   1
     6     3     4   2
     7     3     5   1
     8    14     3   1
     9     5     6  am
    10     6     7   1
    11     6     8   2
    12     7     9  ar
    13     7    12  ar
    14     9    10  ar
    15    10    24  ar
    16    12    11  ar
    17    11    24  ar
    18    13    14   2
    19    16    13   1
    20    15    14   1
    21    17    18   1
    22    17    22   1
    23    24    17   1
    24    18    19   1
    25    19    20   1
    26    21    20   1
    27    20    23   1
    28    22    21   1
    29    25    26   2
    30    32    25   1
    31    27    28  ar
    32    29    27  ar
    33    28    30  ar
    34    29    31  ar
    35    29    32   1
    36    30    33  ar
    37    31    33  ar
    38    32    35   1
    39    35    34   1
    40     2    36   1
    41     5    37   1
    42     9    38   1
    43    10    39   1
    44    11    40   1
    45    12    41   1
    46    15    42   1
    47    15    43   1
    48    16    44   1
    49    16    45   1
    50    18    46   1
    51    18    47   1
    52    19    48   1
    53    19    49   1
    54    20    50   1
    55    21    51   1
    56    21    52   1
    57    22    53   1
    58    22    54   1
    59    23    55   1
    60    23    56   1
    61    23    57   1
    62    27    58   1
    63    28    59   1
    64    30    60   1
    65    31    61   1
    66    32    62   1
    67    33    63   1
    68    34    64   1
    69    34    65   1
    70    34    66   1
@<TRIPOS>SUBSTRUCTURE
     1  MOL      3

