@<TRIPOS>MOLECULE
2v7a_ligand_064
    66    70
SMALL
GAST_HUCK
****
This file was generated by PARSER (from files_GN.cpp)

@<TRIPOS>ATOM
      1 N1        -44.1723  -46.9248   -7.1577 N.am        1 MOL      -0.2534
      2 N2        -43.1320  -50.2991   -7.8846 N.pl3       1 MOL      -0.2433
      3 C3        -44.3466  -50.4257   -6.0852 C.2         1 MOL       0.1027
      4 N4        -43.6350  -51.1142   -7.0023 N.2         1 MOL      -0.2404
      5 N5        -45.0018  -51.0647   -5.0857 N.am        1 MOL      -0.2391
      6 C6        -45.7605  -50.5862   -4.1009 C.2         1 MOL       0.2181
      7 C7        -46.4597  -51.4229   -3.2107 C.ar        1 MOL       0.0412
      8 O8        -45.8668  -49.3717   -3.9678 O.2         1 MOL      -0.3816
      9 C9        -47.2836  -50.8938   -2.1846 C.ar        1 MOL      -0.0531
     10 C10       -48.0210  -51.7239   -1.3240 C.ar        1 MOL      -0.0381
     11 C11       -47.1374  -53.6637   -2.4420 C.ar        1 MOL      -0.0381
     12 C12       -46.4048  -52.8360   -3.3053 C.ar        1 MOL      -0.0531
     13 C13       -43.4981  -49.0478   -7.5910 C.2         1 MOL       0.0786
     14 C14       -44.2576  -49.0906   -6.4629 C.2         1 MOL       0.0146
     15 C15       -44.7443  -47.7646   -6.1341 C.3         1 MOL       0.0514
     16 C16       -43.3724  -47.6903   -8.1017 C.3         1 MOL       0.0897
     17 N17       -48.7068  -53.9632   -0.5934 N.pl3       1 MOL      -0.2958
     18 C18       -49.9871  -53.5827   -0.0140 C.3         1 MOL       0.0680
     19 C19       -49.9201  -53.6410    1.5316 C.3         1 MOL      -0.0118
     20 N20       -49.4637  -54.9930    1.9791 N.4         1 MOL       0.2359
     21 C21       -48.1678  -55.3800    1.3432 C.3         1 MOL      -0.0118
     22 C22       -48.2556  -55.2910   -0.2010 C.3         1 MOL       0.0680
     23 C23       -49.4363  -55.1278    3.4615 C.3         1 MOL      -0.0430
     24 C24       -47.9783  -53.1405   -1.4237 C.ar        1 MOL       0.0460
     25 C25       -44.3086  -45.5823   -7.2363 C.2         1 MOL       0.2222
     26 O26       -43.5538  -44.9992   -8.0057 O.2         1 MOL      -0.3907
     27 C27       -46.2706  -43.7682   -8.6053 C.ar        1 MOL      -0.0555
     28 C28       -46.8673  -42.7114   -9.3131 C.ar        1 MOL      -0.0680
     29 C29       -45.8412  -43.5941   -7.2685 C.ar        1 MOL       0.0044
     30 C31       -47.1091  -41.4854   -8.6785 C.ar        1 MOL      -0.0684
     31 C33       -46.1020  -42.3502   -6.6409 C.ar        1 MOL      -0.0555
     32 C20       -45.2277  -44.7136   -6.4658 C.3         1 MOL       0.1804
     33 C35       -46.7453  -41.3099   -7.3336 C.ar        1 MOL      -0.0680
     34 C36       -47.3727  -44.8789   -5.1140 C.3         1 MOL       0.0424
     35 O34       -46.2361  -45.4735   -5.7717 O.3         1 MOL      -0.3473
     36 H1        -42.5969  -50.5650   -8.6447 H           1 MOL       0.2389
     37 H2        -44.9083  -52.0258   -5.1202 H           1 MOL       0.2188
     38 H3        -47.3633  -49.8812   -2.0479 H           1 MOL       0.0636
     39 H4        -48.5575  -51.2709   -0.5827 H           1 MOL       0.0530
     40 H5        -47.0922  -54.6695   -2.6156 H           1 MOL       0.0530
     41 H6        -45.8442  -53.2976   -4.0236 H           1 MOL       0.0636
     42 H7        -45.8324  -47.8064   -6.1892 H           1 MOL       0.0576
     43 H8        -44.3996  -47.4665   -5.1394 H           1 MOL       0.0576
     44 H9        -42.3237  -47.3842   -8.0999 H           1 MOL       0.0708
     45 H10       -43.7889  -47.6275   -9.1102 H           1 MOL       0.0708
     46 H11       -50.7470  -54.2907   -0.3573 H           1 MOL       0.0569
     47 H12       -50.3462  -52.5994   -0.3194 H           1 MOL       0.0569
     48 H13       -50.9180  -53.4355    1.9294 H           1 MOL       0.0834
     49 H14       -49.2403  -52.8626    1.8932 H           1 MOL       0.0834
     50 H15       -50.1611  -55.6606    1.6416 H           1 MOL       0.2032
     51 H16       -47.9135  -56.4079    1.6102 H           1 MOL       0.0834
     52 H17       -47.3602  -54.7288    1.6949 H           1 MOL       0.0834
     53 H18       -47.2667  -55.5549   -0.5760 H           1 MOL       0.0569
     54 H19       -48.9554  -56.0435   -0.5753 H           1 MOL       0.0569
     55 H20       -50.4318  -54.9480    3.8719 H           1 MOL       0.0778
     56 H21       -48.7374  -54.4191    3.9117 H           1 MOL       0.0778
     57 H22       -49.1406  -56.1393    3.7476 H           1 MOL       0.0778
     58 H23       -46.1214  -44.6588   -9.0890 H           1 MOL       0.0562
     59 H24       -47.1329  -42.8394  -10.2956 H           1 MOL       0.0600
     60 H25       -47.5659  -40.7231   -9.1887 H           1 MOL       0.0561
     61 H26       -45.8475  -42.1996   -5.6636 H           1 MOL       0.0562
     62 H27       -44.6043  -44.2723   -5.6861 H           1 MOL       0.1000
     63 H28       -46.9481  -40.4279   -6.8573 H           1 MOL       0.0600
     64 H29       -47.9267  -45.6557   -4.5852 H           1 MOL       0.0528
     65 H30       -48.0357  -44.4293   -5.8598 H           1 MOL       0.0528
     66 H31       -47.0478  -44.1224   -4.3971 H           1 MOL       0.0528
@<TRIPOS>BOND
     1     1    15   1
     2     1    16   1
     3    25     1  am
     4     2     4   1
     5    13     2   1
     6     3     4   2
     7     3     5   1
     8    14     3   1
     9     5     6  am
    10     6     7   1
    11     6     8   2
    12     7     9  ar
    13     7    12  ar
    14     9    10  ar
    15    10    24  ar
    16    12    11  ar
    17    11    24  ar
    18    13    14   2
    19    16    13   1
    20    15    14   1
    21    17    18   1
    22    17    22   1
    23    24    17   1
    24    18    19   1
    25    19    20   1
    26    21    20   1
    27    20    23   1
    28    22    21   1
    29    25    26   2
    30    32    25   1
    31    27    28  ar
    32    29    27  ar
    33    28    30  ar
    34    29    31  ar
    35    29    32   1
    36    30    33  ar
    37    31    33  ar
    38    32    35   1
    39    35    34   1
    40     2    36   1
    41     5    37   1
    42     9    38   1
    43    10    39   1
    44    11    40   1
    45    12    41   1
    46    15    42   1
    47    15    43   1
    48    16    44   1
    49    16    45   1
    50    18    46   1
    51    18    47   1
    52    19    48   1
    53    19    49   1
    54    20    50   1
    55    21    51   1
    56    21    52   1
    57    22    53   1
    58    22    54   1
    59    23    55   1
    60    23    56   1
    61    23    57   1
    62    27    58   1
    63    28    59   1
    64    30    60   1
    65    31    61   1
    66    32    62   1
    67    33    63   1
    68    34    64   1
    69    34    65   1
    70    34    66   1
@<TRIPOS>SUBSTRUCTURE
     1  MOL      3

