@<TRIPOS>MOLECULE
2v7a_ligand_020
    66    70
SMALL
GAST_HUCK
****
This file was generated by PARSER (from files_GN.cpp)

@<TRIPOS>ATOM
      1 N1        -44.0940  -46.2154   -8.6892 N.am        1 MOL      -0.2534
      2 N2        -44.9750  -44.9334   -5.4554 N.pl3       1 MOL      -0.2433
      3 C3        -45.6071  -47.0096   -5.4449 C.2         1 MOL       0.1027
      4 N4        -45.5405  -45.8560   -4.7392 N.2         1 MOL      -0.2404
      5 N5        -46.1133  -48.2056   -5.0498 N.am        1 MOL      -0.2391
      6 C6        -46.7150  -48.4862   -3.8920 C.2         1 MOL       0.2181
      7 C7        -47.1874  -49.7698   -3.6098 C.ar        1 MOL       0.0412
      8 O8        -46.9063  -47.6018   -3.0608 O.2         1 MOL      -0.3816
      9 C9        -46.4662  -50.9259   -4.0022 C.ar        1 MOL      -0.0531
     10 C10       -46.9174  -52.2158   -3.6606 C.ar        1 MOL      -0.0381
     11 C11       -48.8738  -51.2467   -2.5892 C.ar        1 MOL      -0.0381
     12 C12       -48.3971  -49.9581   -2.8930 C.ar        1 MOL      -0.0531
     13 C13       -44.6496  -45.4388   -6.6490 C.2         1 MOL       0.0786
     14 C14       -45.0428  -46.7438   -6.6904 C.2         1 MOL       0.0146
     15 C15       -44.7316  -47.3233   -7.9888 C.3         1 MOL       0.0514
     16 C16       -44.0254  -45.0173   -7.8824 C.3         1 MOL       0.0897
     17 N17       -48.5789  -53.6255   -2.6181 N.pl3       1 MOL      -0.2958
     18 C18       -49.6015  -54.2781   -3.3983 C.3         1 MOL       0.0680
     19 C19       -49.0589  -55.6413   -3.9044 C.3         1 MOL      -0.0118
     20 N20       -48.4945  -56.4882   -2.8047 N.4         1 MOL       0.2359
     21 C21       -47.4911  -55.7357   -1.9820 C.3         1 MOL      -0.0118
     22 C22       -48.0020  -54.3476   -1.5105 C.3         1 MOL       0.0680
     23 C23       -49.5335  -57.1980   -1.9999 C.3         1 MOL      -0.0430
     24 C24       -48.1292  -52.3863   -2.9554 C.ar        1 MOL       0.0460
     25 C25       -43.6200  -46.2992   -9.9441 C.2         1 MOL       0.2222
     26 O26       -43.7449  -47.3649  -10.5384 O.2         1 MOL      -0.3907
     27 C27       -40.8755  -46.6465  -11.2294 C.ar        1 MOL      -0.0555
     28 C28       -39.4838  -46.8344  -11.3172 C.ar        1 MOL      -0.0680
     29 C29       -41.4201  -45.4763  -10.6509 C.ar        1 MOL       0.0044
     30 C31       -38.6103  -45.8537  -10.8187 C.ar        1 MOL      -0.0684
     31 C33       -40.5217  -44.4955  -10.1532 C.ar        1 MOL      -0.0555
     32 C20       -42.9020  -45.2338  -10.6686 C.3         1 MOL       0.1804
     33 C35       -39.1277  -44.6824  -10.2400 C.ar        1 MOL      -0.0680
     34 C36       -42.5213  -44.8566  -13.0937 C.3         1 MOL       0.0424
     35 O34       -43.4339  -45.1321  -12.0128 O.3         1 MOL      -0.3473
     36 H1        -44.7840  -44.0310   -5.1552 H           1 MOL       0.2389
     37 H2        -46.0385  -48.9326   -5.6918 H           1 MOL       0.2188
     38 H3        -45.5874  -50.8402   -4.5165 H           1 MOL       0.0636
     39 H4        -46.3749  -53.0349   -3.9510 H           1 MOL       0.0530
     40 H5        -49.7572  -51.3546   -2.0823 H           1 MOL       0.0530
     41 H6        -48.9607  -49.1563   -2.6001 H           1 MOL       0.0636
     42 H7        -44.0508  -48.1680   -7.8702 H           1 MOL       0.0576
     43 H8        -45.6478  -47.6421   -8.4905 H           1 MOL       0.0576
     44 H9        -44.6055  -44.2033   -8.3220 H           1 MOL       0.0708
     45 H10       -42.9927  -44.7107   -7.6985 H           1 MOL       0.0708
     46 H11       -49.9161  -53.6754   -4.2594 H           1 MOL       0.0569
     47 H12       -50.4849  -54.4409   -2.7750 H           1 MOL       0.0569
     48 H13       -48.2626  -55.4484   -4.6281 H           1 MOL       0.0834
     49 H14       -49.8486  -56.1734   -4.4402 H           1 MOL       0.0834
     50 H15       -47.9642  -57.2299   -3.2665 H           1 MOL       0.2032
     51 H16       -46.5962  -55.5867   -2.5902 H           1 MOL       0.0834
     52 H17       -47.1860  -56.3210   -1.1087 H           1 MOL       0.0834
     53 H18       -48.7725  -54.4879   -0.7483 H           1 MOL       0.0569
     54 H19       -47.1785  -53.7991   -1.0403 H           1 MOL       0.0569
     55 H20       -50.1717  -57.8024   -2.6495 H           1 MOL       0.0778
     56 H21       -50.1669  -56.5025   -1.4444 H           1 MOL       0.0778
     57 H22       -49.0632  -57.8800   -1.2877 H           1 MOL       0.0778
     58 H23       -41.4880  -47.3591  -11.6304 H           1 MOL       0.0562
     59 H24       -39.1079  -47.6822  -11.7528 H           1 MOL       0.0600
     60 H25       -37.6016  -45.9836  -10.8986 H           1 MOL       0.0561
     61 H26       -40.8760  -43.6245   -9.7425 H           1 MOL       0.0562
     62 H27       -43.1319  -44.2732  -10.2053 H           1 MOL       0.1000
     63 H28       -38.4884  -43.9637   -9.8876 H           1 MOL       0.0600
     64 H29       -43.0981  -44.5644  -13.9712 H           1 MOL       0.0528
     65 H30       -41.9610  -45.7591  -13.3364 H           1 MOL       0.0528
     66 H31       -41.8194  -44.0579  -12.8529 H           1 MOL       0.0528
@<TRIPOS>BOND
     1     1    15   1
     2     1    16   1
     3    25     1  am
     4     2     4   1
     5    13     2   1
     6     3     4   2
     7     3     5   1
     8    14     3   1
     9     5     6  am
    10     6     7   1
    11     6     8   2
    12     7     9  ar
    13     7    12  ar
    14     9    10  ar
    15    10    24  ar
    16    12    11  ar
    17    11    24  ar
    18    13    14   2
    19    16    13   1
    20    15    14   1
    21    17    18   1
    22    17    22   1
    23    24    17   1
    24    18    19   1
    25    19    20   1
    26    21    20   1
    27    20    23   1
    28    22    21   1
    29    25    26   2
    30    32    25   1
    31    27    28  ar
    32    29    27  ar
    33    28    30  ar
    34    29    31  ar
    35    29    32   1
    36    30    33  ar
    37    31    33  ar
    38    32    35   1
    39    35    34   1
    40     2    36   1
    41     5    37   1
    42     9    38   1
    43    10    39   1
    44    11    40   1
    45    12    41   1
    46    15    42   1
    47    15    43   1
    48    16    44   1
    49    16    45   1
    50    18    46   1
    51    18    47   1
    52    19    48   1
    53    19    49   1
    54    20    50   1
    55    21    51   1
    56    21    52   1
    57    22    53   1
    58    22    54   1
    59    23    55   1
    60    23    56   1
    61    23    57   1
    62    27    58   1
    63    28    59   1
    64    30    60   1
    65    31    61   1
    66    32    62   1
    67    33    63   1
    68    34    64   1
    69    34    65   1
    70    34    66   1
@<TRIPOS>SUBSTRUCTURE
     1  MOL      3

