@<TRIPOS>MOLECULE
2v7a_ligand_060
    66    70
SMALL
GAST_HUCK
****
This file was generated by PARSER (from files_GN.cpp)

@<TRIPOS>ATOM
      1 N1        -49.4688  -45.9937   -0.9567 N.am        1 MOL      -0.2534
      2 N2        -51.9115  -48.6099   -0.6524 N.pl3       1 MOL      -0.2433
      3 C3        -50.5597  -49.2705   -2.2100 C.2         1 MOL       0.1027
      4 N4        -51.6401  -49.5815   -1.4643 N.2         1 MOL      -0.2404
      5 N5        -50.0656  -50.1929   -3.0710 N.am        1 MOL      -0.2391
      6 C6        -48.9871  -50.1594   -3.8454 C.2         1 MOL       0.2181
      7 C7        -48.6568  -51.2365   -4.6793 C.ar        1 MOL       0.0412
      8 O8        -48.2484  -49.1820   -3.8154 O.2         1 MOL      -0.3816
      9 C9        -47.3422  -51.4134   -5.1726 C.ar        1 MOL      -0.0531
     10 C10       -47.0125  -52.4940   -6.0136 C.ar        1 MOL      -0.0381
     11 C11       -49.2889  -53.2643   -5.9246 C.ar        1 MOL      -0.0381
     12 C12       -49.6232  -52.1919   -5.0796 C.ar        1 MOL      -0.0531
     13 C13       -51.0235  -47.6274   -0.8306 C.2         1 MOL       0.0786
     14 C14       -50.1622  -47.9884   -1.8238 C.2         1 MOL       0.0146
     15 C15       -49.1693  -46.9350   -2.0183 C.3         1 MOL       0.0514
     16 C16       -50.6693  -46.3563   -0.2294 C.3         1 MOL       0.0897
     17 N17       -47.6591  -54.5077   -7.2651 N.pl3       1 MOL      -0.2958
     18 C18       -48.4084  -55.7561   -7.3018 C.3         1 MOL       0.0680
     19 C19       -49.0092  -55.9774   -8.7141 C.3         1 MOL      -0.0118
     20 N20       -47.9661  -55.9241   -9.7862 N.4         1 MOL       0.2359
     21 C21       -47.1208  -54.6958   -9.6686 C.3         1 MOL      -0.0118
     22 C22       -46.5722  -54.4508   -8.2338 C.3         1 MOL       0.0680
     23 C23       -47.1770  -57.1845   -9.9303 C.3         1 MOL      -0.0430
     24 C24       -47.9754  -53.4559   -6.4231 C.ar        1 MOL       0.0460
     25 C25       -48.7259  -44.9337   -0.6114 C.2         1 MOL       0.2222
     26 O26       -49.0121  -44.4078    0.4684 O.2         1 MOL      -0.3907
     27 C27       -45.5617  -42.8405   -1.1205 C.ar        1 MOL      -0.0555
     28 C28       -44.9885  -41.6173   -0.7276 C.ar        1 MOL      -0.0680
     29 C29       -46.9519  -43.0966   -0.9523 C.ar        1 MOL       0.0044
     30 C31       -45.7957  -40.6208   -0.1566 C.ar        1 MOL      -0.0684
     31 C33       -47.7510  -42.0247   -0.4928 C.ar        1 MOL      -0.0555
     32 C20       -47.5534  -44.4301   -1.3603 C.3         1 MOL       0.1804
     33 C35       -47.1732  -40.7981   -0.0651 C.ar        1 MOL      -0.0680
     34 C36       -46.1306  -46.2159   -0.3476 C.3         1 MOL       0.0424
     35 O34       -46.5388  -45.4686   -1.5144 O.3         1 MOL      -0.3473
     36 H1        -52.6151  -48.6201    0.0115 H           1 MOL       0.2389
     37 H2        -50.5722  -51.0207   -3.0873 H           1 MOL       0.2188
     38 H3        -46.5933  -50.7674   -4.9089 H           1 MOL       0.0636
     39 H4        -46.0319  -52.5875   -6.2796 H           1 MOL       0.0530
     40 H5        -50.0580  -53.8693   -6.2181 H           1 MOL       0.0530
     41 H6        -50.5986  -52.1053   -4.7917 H           1 MOL       0.0636
     42 H7        -48.1771  -47.3656   -1.9059 H           1 MOL       0.0576
     43 H8        -49.2731  -46.4784   -3.0043 H           1 MOL       0.0576
     44 H9        -51.4578  -45.6149   -0.3769 H           1 MOL       0.0708
     45 H10       -50.4718  -46.4990    0.8350 H           1 MOL       0.0708
     46 H11       -49.2026  -55.8322   -6.5597 H           1 MOL       0.0569
     47 H12       -47.7293  -56.5790   -7.0708 H           1 MOL       0.0569
     48 H13       -49.7454  -55.1918   -8.9078 H           1 MOL       0.0834
     49 H14       -49.5471  -56.9278   -8.7387 H           1 MOL       0.0834
     50 H15       -48.4762  -55.8306  -10.6680 H           1 MOL       0.2032
     51 H16       -47.7361  -53.8367   -9.9513 H           1 MOL       0.0834
     52 H17       -46.2855  -54.7271  -10.3742 H           1 MOL       0.0834
     53 H18       -45.8262  -55.2096   -7.9837 H           1 MOL       0.0569
     54 H19       -46.0563  -53.4918   -8.2695 H           1 MOL       0.0569
     55 H20       -47.8451  -58.0331  -10.0853 H           1 MOL       0.0778
     56 H21       -46.5596  -57.3828   -9.0533 H           1 MOL       0.0778
     57 H22       -46.5262  -57.1201  -10.8042 H           1 MOL       0.0778
     58 H23       -44.9428  -43.5374   -1.5338 H           1 MOL       0.0562
     59 H24       -43.9917  -41.4572   -0.8575 H           1 MOL       0.0600
     60 H25       -45.3708  -39.7428    0.1643 H           1 MOL       0.0561
     61 H26       -48.7648  -42.0875   -0.4397 H           1 MOL       0.0562
     62 H27       -47.9345  -44.2483   -2.3702 H           1 MOL       0.1000
     63 H28       -47.7743  -40.0577    0.2841 H           1 MOL       0.0600
     64 H29       -45.3091  -46.8752   -0.6338 H           1 MOL       0.0528
     65 H30       -46.9510  -46.8387    0.0147 H           1 MOL       0.0528
     66 H31       -45.7877  -45.5666    0.4621 H           1 MOL       0.0528
@<TRIPOS>BOND
     1     1    15   1
     2     1    16   1
     3    25     1  am
     4     2     4   1
     5    13     2   1
     6     3     4   2
     7     3     5   1
     8    14     3   1
     9     5     6  am
    10     6     7   1
    11     6     8   2
    12     7     9  ar
    13     7    12  ar
    14     9    10  ar
    15    10    24  ar
    16    12    11  ar
    17    11    24  ar
    18    13    14   2
    19    16    13   1
    20    15    14   1
    21    17    18   1
    22    17    22   1
    23    24    17   1
    24    18    19   1
    25    19    20   1
    26    21    20   1
    27    20    23   1
    28    22    21   1
    29    25    26   2
    30    32    25   1
    31    27    28  ar
    32    29    27  ar
    33    28    30  ar
    34    29    31  ar
    35    29    32   1
    36    30    33  ar
    37    31    33  ar
    38    32    35   1
    39    35    34   1
    40     2    36   1
    41     5    37   1
    42     9    38   1
    43    10    39   1
    44    11    40   1
    45    12    41   1
    46    15    42   1
    47    15    43   1
    48    16    44   1
    49    16    45   1
    50    18    46   1
    51    18    47   1
    52    19    48   1
    53    19    49   1
    54    20    50   1
    55    21    51   1
    56    21    52   1
    57    22    53   1
    58    22    54   1
    59    23    55   1
    60    23    56   1
    61    23    57   1
    62    27    58   1
    63    28    59   1
    64    30    60   1
    65    31    61   1
    66    32    62   1
    67    33    63   1
    68    34    64   1
    69    34    65   1
    70    34    66   1
@<TRIPOS>SUBSTRUCTURE
     1  MOL      3

