@<TRIPOS>MOLECULE
2v7a_ligand_000
    66    70
SMALL
GAST_HUCK
****
This file was generated by PARSER (from files_GN.cpp)

@<TRIPOS>ATOM
      1 N1        -46.1595  -42.9179   -0.6247 N.am        1 MOL      -0.2534
      2 N2        -48.6426  -44.6690    1.2937 N.pl3       1 MOL      -0.2433
      3 C3        -47.9857  -46.0880   -0.2164 C.2         1 MOL       0.1027
      4 N4        -48.7908  -45.8786    0.8499 N.2         1 MOL      -0.2404
      5 N5        -47.9731  -47.3029   -0.8135 N.am        1 MOL      -0.2391
      6 C6        -47.3038  -47.7353   -1.8816 C.2         1 MOL       0.2181
      7 C7        -47.3376  -49.0840   -2.2489 C.ar        1 MOL       0.0412
      8 O8        -46.6187  -46.9583   -2.5310 O.2         1 MOL      -0.3816
      9 C9        -47.4644  -50.1101   -1.2803 C.ar        1 MOL      -0.0531
     10 C10       -47.3989  -51.4680   -1.6341 C.ar        1 MOL      -0.0381
     11 C11       -47.1909  -50.8545   -3.9617 C.ar        1 MOL      -0.0381
     12 C12       -47.1905  -49.4908   -3.5993 C.ar        1 MOL      -0.0531
     13 C13       -47.7342  -44.0371    0.5453 C.2         1 MOL       0.0786
     14 C14       -47.2889  -44.8909   -0.4213 C.2         1 MOL       0.0146
     15 C15       -46.2703  -44.2327   -1.2286 C.3         1 MOL       0.0514
     16 C16       -47.0788  -42.7464    0.4848 C.3         1 MOL       0.0897
     17 N17       -47.2032  -53.2078   -3.3179 N.pl3       1 MOL      -0.2958
     18 C18       -46.4901  -54.1810   -2.5118 C.3         1 MOL       0.0680
     19 C19       -47.4633  -55.2637   -1.9884 C.3         1 MOL      -0.0118
     20 N20       -48.2235  -55.8810   -3.1202 N.4         1 MOL       0.2359
     21 C21       -48.8929  -54.8574   -3.9823 C.3         1 MOL      -0.0118
     22 C22       -47.9099  -53.7505   -4.4619 C.3         1 MOL       0.0680
     23 C23       -49.1535  -56.9462   -2.6456 C.3         1 MOL      -0.0430
     24 C24       -47.2624  -51.8732   -2.9809 C.ar        1 MOL       0.0460
     25 C25       -45.2955  -41.9515   -0.9937 C.2         1 MOL       0.2222
     26 O26       -45.2769  -40.9276   -0.3181 O.2         1 MOL      -0.3907
     27 C27       -44.8106  -41.0931   -4.4521 C.ar        1 MOL      -0.0555
     28 C28       -44.9380  -40.0368   -5.3725 C.ar        1 MOL      -0.0680
     29 C29       -44.4567  -40.8601   -3.0976 C.ar        1 MOL       0.0044
     30 C31       -44.7143  -38.7131   -4.9579 C.ar        1 MOL      -0.0684
     31 C33       -44.2471  -39.5127   -2.7080 C.ar        1 MOL      -0.0555
     32 C20       -44.3448  -42.0068   -2.1188 C.3         1 MOL       0.1804
     33 C35       -44.3757  -38.4536   -3.6220 C.ar        1 MOL      -0.0680
     34 C36       -42.1623  -41.3715   -0.9869 C.3         1 MOL       0.0424
     35 O34       -42.9926  -42.3157   -1.6885 O.3         1 MOL      -0.3473
     36 H1        -49.1021  -44.2868    2.0572 H           1 MOL       0.2389
     37 H2        -48.5481  -47.9622   -0.3910 H           1 MOL       0.2188
     38 H3        -47.5741  -49.8816   -0.2882 H           1 MOL       0.0636
     39 H4        -47.4974  -52.1620   -0.8904 H           1 MOL       0.0530
     40 H5        -47.0594  -51.0928   -4.9463 H           1 MOL       0.0530
     41 H6        -47.0879  -48.7948   -4.3454 H           1 MOL       0.0636
     42 H7        -45.3253  -44.7779   -1.1519 H           1 MOL       0.0576
     43 H8        -46.6008  -44.1715   -2.2688 H           1 MOL       0.0576
     44 H9        -47.8089  -41.9582    0.2854 H           1 MOL       0.0708
     45 H10       -46.5531  -42.5542    1.4232 H           1 MOL       0.0708
     46 H11       -45.9515  -53.7390   -1.6720 H           1 MOL       0.0569
     47 H12       -45.7285  -54.6631   -3.1403 H           1 MOL       0.0569
     48 H13       -48.1505  -54.8080   -1.2654 H           1 MOL       0.0834
     49 H14       -46.8801  -56.0274   -1.4734 H           1 MOL       0.0834
     50 H15       -47.5314  -56.3683   -3.7004 H           1 MOL       0.2032
     51 H16       -49.7059  -54.3793   -3.4254 H           1 MOL       0.0834
     52 H17       -49.3246  -55.3385   -4.8623 H           1 MOL       0.0834
     53 H18       -47.1890  -54.1753   -5.1703 H           1 MOL       0.0569
     54 H19       -48.4929  -52.9981   -4.9968 H           1 MOL       0.0569
     55 H20       -49.6279  -57.4368   -3.4984 H           1 MOL       0.0778
     56 H21       -49.9342  -56.5321   -2.0007 H           1 MOL       0.0778
     57 H22       -48.6079  -57.7084   -2.0893 H           1 MOL       0.0778
     58 H23       -44.9920  -42.0420   -4.7852 H           1 MOL       0.0562
     59 H24       -45.1940  -40.2308   -6.3458 H           1 MOL       0.0600
     60 H25       -44.8021  -37.9450   -5.6285 H           1 MOL       0.0561
     61 H26       -44.0017  -39.2819   -1.7380 H           1 MOL       0.0562
     62 H27       -44.5841  -42.9086   -2.6791 H           1 MOL       0.1000
     63 H28       -44.2162  -37.4902   -3.3206 H           1 MOL       0.0600
     64 H29       -41.2826  -41.8902   -0.6216 H           1 MOL       0.0528
     65 H30       -42.6799  -40.9421   -0.1260 H           1 MOL       0.0528
     66 H31       -41.8444  -40.5738   -1.6595 H           1 MOL       0.0528
@<TRIPOS>BOND
     1     1    15   1
     2     1    16   1
     3    25     1  am
     4     2     4   1
     5    13     2   1
     6     3     4   2
     7     3     5   1
     8    14     3   1
     9     5     6  am
    10     6     7   1
    11     6     8   2
    12     7     9  ar
    13     7    12  ar
    14     9    10  ar
    15    10    24  ar
    16    12    11  ar
    17    11    24  ar
    18    13    14   2
    19    16    13   1
    20    15    14   1
    21    17    18   1
    22    17    22   1
    23    24    17   1
    24    18    19   1
    25    19    20   1
    26    21    20   1
    27    20    23   1
    28    22    21   1
    29    25    26   2
    30    32    25   1
    31    27    28  ar
    32    29    27  ar
    33    28    30  ar
    34    29    31  ar
    35    29    32   1
    36    30    33  ar
    37    31    33  ar
    38    32    35   1
    39    35    34   1
    40     2    36   1
    41     5    37   1
    42     9    38   1
    43    10    39   1
    44    11    40   1
    45    12    41   1
    46    15    42   1
    47    15    43   1
    48    16    44   1
    49    16    45   1
    50    18    46   1
    51    18    47   1
    52    19    48   1
    53    19    49   1
    54    20    50   1
    55    21    51   1
    56    21    52   1
    57    22    53   1
    58    22    54   1
    59    23    55   1
    60    23    56   1
    61    23    57   1
    62    27    58   1
    63    28    59   1
    64    30    60   1
    65    31    61   1
    66    32    62   1
    67    33    63   1
    68    34    64   1
    69    34    65   1
    70    34    66   1
@<TRIPOS>SUBSTRUCTURE
     1  MOL      3

