@<TRIPOS>MOLECULE
2v7a_ligand_009
    66    70
SMALL
GAST_HUCK
****
This file was generated by PARSER (from files_GN.cpp)

@<TRIPOS>ATOM
      1 N1        -43.0418  -46.3219   -8.1936 N.am        1 MOL      -0.2534
      2 N2        -44.9514  -44.7181   -5.5969 N.pl3       1 MOL      -0.2433
      3 C3        -45.2633  -46.8472   -5.3371 C.2         1 MOL       0.1027
      4 N4        -45.5369  -45.6132   -4.8604 N.2         1 MOL      -0.2404
      5 N5        -45.6782  -48.0458   -4.8641 N.am        1 MOL      -0.2391
      6 C6        -46.3518  -48.2825   -3.7410 C.2         1 MOL       0.2181
      7 C7        -46.8157  -49.5639   -3.4461 C.ar        1 MOL       0.0412
      8 O8        -46.5514  -47.3802   -2.9338 O.2         1 MOL      -0.3816
      9 C9        -46.8936  -50.0248   -2.1109 C.ar        1 MOL      -0.0531
     10 C10       -47.3548  -51.3175   -1.8103 C.ar        1 MOL      -0.0381
     11 C11       -47.7287  -51.7321   -4.1602 C.ar        1 MOL      -0.0381
     12 C12       -47.2368  -50.4498   -4.4656 C.ar        1 MOL      -0.0531
     13 C13       -44.2638  -45.3253   -6.5688 C.2         1 MOL       0.0786
     14 C14       -44.4457  -46.6680   -6.4453 C.2         1 MOL       0.0146
     15 C15       -43.7012  -47.3928   -7.4670 C.3         1 MOL       0.0514
     16 C16       -43.3764  -45.0106   -7.6712 C.3         1 MOL       0.0897
     17 N17       -48.2805  -53.4604   -2.5198 N.pl3       1 MOL      -0.2958
     18 C18       -47.6913  -54.2907   -1.4797 C.3         1 MOL       0.0680
     19 C19       -47.2794  -55.6670   -2.0704 C.3         1 MOL      -0.0118
     20 N20       -48.3840  -56.3416   -2.8202 N.4         1 MOL       0.2359
     21 C21       -49.0000  -55.4279   -3.8316 C.3         1 MOL      -0.0118
     22 C22       -49.4058  -54.0612   -3.2218 C.3         1 MOL       0.0680
     23 C23       -49.3736  -57.0315   -1.9412 C.3         1 MOL      -0.0430
     24 C24       -47.7979  -52.2078   -2.8242 C.ar        1 MOL       0.0460
     25 C25       -42.1880  -46.4901   -9.2187 C.2         1 MOL       0.2222
     26 O26       -41.6623  -45.4929   -9.7065 O.2         1 MOL      -0.3907
     27 C27       -43.9818  -48.0124  -11.0693 C.ar        1 MOL      -0.0555
     28 C28       -45.0196  -48.7959  -11.6006 C.ar        1 MOL      -0.0680
     29 C29       -42.9219  -48.6076  -10.3376 C.ar        1 MOL       0.0044
     30 C31       -45.0051  -50.1917  -11.4271 C.ar        1 MOL      -0.0684
     31 C33       -42.9177  -50.0149  -10.1863 C.ar        1 MOL      -0.0555
     32 C20       -41.7928  -47.7881   -9.7906 C.3         1 MOL       0.1804
     33 C35       -43.9544  -50.8004  -10.7185 C.ar        1 MOL      -0.0680
     34 C36       -40.8834  -47.2485  -12.0656 C.3         1 MOL       0.0424
     35 O34       -40.6803  -47.7234  -10.7213 O.3         1 MOL      -0.3473
     36 H1        -44.9729  -43.7641   -5.4333 H           1 MOL       0.2389
     37 H2        -45.4414  -48.8201   -5.4020 H           1 MOL       0.2188
     38 H3        -46.6081  -49.4224   -1.3347 H           1 MOL       0.0636
     39 H4        -47.4197  -51.5802   -0.8254 H           1 MOL       0.0530
     40 H5        -47.9892  -52.3352   -4.9427 H           1 MOL       0.0530
     41 H6        -47.2102  -50.1684   -5.4500 H           1 MOL       0.0636
     42 H7        -42.9816  -48.0689   -6.9975 H           1 MOL       0.0576
     43 H8        -44.3957  -47.9519   -8.0972 H           1 MOL       0.0576
     44 H9        -43.8985  -44.4083   -8.4148 H           1 MOL       0.0708
     45 H10       -42.4946  -44.4844   -7.2994 H           1 MOL       0.0708
     46 H11       -48.4112  -54.4304   -0.6687 H           1 MOL       0.0569
     47 H12       -46.7881  -53.8603   -1.0413 H           1 MOL       0.0569
     48 H13       -46.9062  -56.3134   -1.2723 H           1 MOL       0.0834
     49 H14       -46.4476  -55.5114   -2.7646 H           1 MOL       0.0834
     50 H15       -47.9380  -57.0870   -3.3570 H           1 MOL       0.2032
     51 H16       -49.8733  -55.8906   -4.2973 H           1 MOL       0.0834
     52 H17       -48.2716  -55.2497   -4.6280 H           1 MOL       0.0834
     53 H18       -49.8253  -53.4328   -4.0092 H           1 MOL       0.0569
     54 H19       -50.2177  -54.2116   -2.5062 H           1 MOL       0.0569
     55 H20       -50.1095  -57.5655   -2.5454 H           1 MOL       0.0778
     56 H21       -49.9000  -56.3315   -1.2900 H           1 MOL       0.0778
     57 H22       -48.8661  -57.7707   -1.3184 H           1 MOL       0.0778
     58 H23       -44.0126  -46.9991  -11.2047 H           1 MOL       0.0562
     59 H24       -45.7954  -48.3530  -12.0978 H           1 MOL       0.0600
     60 H25       -45.7691  -50.7604  -11.8003 H           1 MOL       0.0561
     61 H26       -42.1624  -50.4753   -9.6734 H           1 MOL       0.0562
     62 H27       -41.3701  -48.3273   -8.9415 H           1 MOL       0.1000
     63 H28       -43.9522  -51.8111  -10.5759 H           1 MOL       0.0600
     64 H29       -39.9039  -47.1132  -12.5404 H           1 MOL       0.0528
     65 H30       -41.4036  -46.2889  -12.0791 H           1 MOL       0.0528
     66 H31       -41.4495  -47.9778  -12.6518 H           1 MOL       0.0528
@<TRIPOS>BOND
     1     1    15   1
     2     1    16   1
     3    25     1  am
     4     2     4   1
     5    13     2   1
     6     3     4   2
     7     3     5   1
     8    14     3   1
     9     5     6  am
    10     6     7   1
    11     6     8   2
    12     7     9  ar
    13     7    12  ar
    14     9    10  ar
    15    10    24  ar
    16    12    11  ar
    17    11    24  ar
    18    13    14   2
    19    16    13   1
    20    15    14   1
    21    17    18   1
    22    17    22   1
    23    24    17   1
    24    18    19   1
    25    19    20   1
    26    21    20   1
    27    20    23   1
    28    22    21   1
    29    25    26   2
    30    32    25   1
    31    27    28  ar
    32    29    27  ar
    33    28    30  ar
    34    29    31  ar
    35    29    32   1
    36    30    33  ar
    37    31    33  ar
    38    32    35   1
    39    35    34   1
    40     2    36   1
    41     5    37   1
    42     9    38   1
    43    10    39   1
    44    11    40   1
    45    12    41   1
    46    15    42   1
    47    15    43   1
    48    16    44   1
    49    16    45   1
    50    18    46   1
    51    18    47   1
    52    19    48   1
    53    19    49   1
    54    20    50   1
    55    21    51   1
    56    21    52   1
    57    22    53   1
    58    22    54   1
    59    23    55   1
    60    23    56   1
    61    23    57   1
    62    27    58   1
    63    28    59   1
    64    30    60   1
    65    31    61   1
    66    32    62   1
    67    33    63   1
    68    34    64   1
    69    34    65   1
    70    34    66   1
@<TRIPOS>SUBSTRUCTURE
     1  MOL      3

