@<TRIPOS>MOLECULE
2v7a_ligand_053
    66    70
SMALL
GAST_HUCK
****
This file was generated by PARSER (from files_GN.cpp)

@<TRIPOS>ATOM
      1 N1        -46.1755  -43.0711    0.0300 N.am        1 MOL      -0.2534
      2 N2        -48.0646  -46.0761    0.6247 N.pl3       1 MOL      -0.2433
      3 C3        -47.3339  -46.2506   -1.4126 C.2         1 MOL       0.1027
      4 N4        -48.0327  -46.8462   -0.4208 N.2         1 MOL      -0.2404
      5 N5        -47.1315  -46.9003   -2.5846 N.am        1 MOL      -0.2391
      6 C6        -46.5354  -46.4780   -3.6963 C.2         1 MOL       0.2181
      7 C7        -46.2139  -47.3437   -4.7578 C.ar        1 MOL       0.0412
      8 O8        -46.2488  -45.2914   -3.7937 O.2         1 MOL      -0.3816
      9 C9        -45.6166  -46.8510   -5.9506 C.ar        1 MOL      -0.0531
     10 C10       -45.3100  -47.7000   -7.0272 C.ar        1 MOL      -0.0381
     11 C11       -46.0783  -49.5999   -5.7510 C.ar        1 MOL      -0.0381
     12 C12       -46.4263  -48.7471   -4.6886 C.ar        1 MOL      -0.0531
     13 C13       -47.3758  -44.9578    0.3707 C.2         1 MOL       0.0786
     14 C14       -46.9052  -45.0205   -0.9078 C.2         1 MOL       0.0146
     15 C15       -46.1216  -43.8223   -1.2054 C.3         1 MOL       0.0514
     16 C16       -46.9569  -43.7431    1.0477 C.3         1 MOL       0.0897
     17 N17       -45.2508  -49.9182   -8.0156 N.pl3       1 MOL      -0.2958
     18 C18       -44.6021  -51.2031   -7.8393 C.3         1 MOL       0.0680
     19 C19       -43.3011  -51.2420   -8.6928 C.3         1 MOL      -0.0118
     20 N20       -43.5889  -50.9024  -10.1222 N.4         1 MOL       0.2359
     21 C21       -44.2856  -49.5856  -10.2562 C.3         1 MOL      -0.0118
     22 C22       -45.5598  -49.5523   -9.3825 C.3         1 MOL       0.0680
     23 C23       -42.3865  -50.9956  -10.9917 C.3         1 MOL      -0.0430
     24 C24       -45.5372  -49.0938   -6.9568 C.ar        1 MOL       0.0460
     25 C25       -45.5574  -41.8938    0.2524 C.2         1 MOL       0.2222
     26 O26       -45.5473  -41.4516    1.3986 O.2         1 MOL      -0.3907
     27 C27       -46.5352  -39.1631   -0.3251 C.ar        1 MOL      -0.0555
     28 C28       -46.9038  -37.8074   -0.4338 C.ar        1 MOL      -0.0680
     29 C29       -45.3035  -39.6396   -0.8465 C.ar        1 MOL       0.0044
     30 C31       -46.0570  -36.9001   -1.0919 C.ar        1 MOL      -0.0684
     31 C33       -44.4925  -38.7081   -1.5433 C.ar        1 MOL      -0.0555
     32 C20       -44.8405  -41.0691   -0.7304 C.3         1 MOL       0.1804
     33 C35       -44.8559  -37.3530   -1.6594 C.ar        1 MOL      -0.0680
     34 C36       -42.4685  -41.5953   -1.2279 C.3         1 MOL       0.0424
     35 O34       -43.4534  -41.0838   -0.3084 O.3         1 MOL      -0.3473
     36 H1        -48.5018  -46.2914    1.4631 H           1 MOL       0.2389
     37 H2        -47.4629  -47.8096   -2.5969 H           1 MOL       0.2188
     38 H3        -45.4068  -45.8556   -6.0586 H           1 MOL       0.0636
     39 H4        -44.8676  -47.2903   -7.8547 H           1 MOL       0.0530
     40 H5        -46.2803  -50.5988   -5.6582 H           1 MOL       0.0530
     41 H6        -46.8352  -49.1778   -3.8583 H           1 MOL       0.0636
     42 H7        -45.0943  -44.1032   -1.4515 H           1 MOL       0.0576
     43 H8        -46.5808  -43.2731   -2.0289 H           1 MOL       0.0576
     44 H9        -47.8324  -43.1576    1.3396 H           1 MOL       0.0708
     45 H10       -46.3578  -44.0018    1.9248 H           1 MOL       0.0708
     46 H11       -45.2754  -52.0031   -8.1632 H           1 MOL       0.0569
     47 H12       -44.3219  -51.4047   -6.8016 H           1 MOL       0.0569
     48 H13       -42.8753  -52.2456   -8.6248 H           1 MOL       0.0834
     49 H14       -42.5791  -50.5361   -8.2738 H           1 MOL       0.0834
     50 H15       -44.2470  -51.6110  -10.4589 H           1 MOL       0.2032
     51 H16       -44.5780  -49.4209  -11.2994 H           1 MOL       0.0834
     52 H17       -43.6233  -48.7633   -9.9555 H           1 MOL       0.0834
     53 H18       -46.0313  -48.5707   -9.4758 H           1 MOL       0.0569
     54 H19       -46.2759  -50.2772   -9.7787 H           1 MOL       0.0569
     55 H20       -41.9264  -51.9799  -10.9007 H           1 MOL       0.0778
     56 H21       -41.6467  -50.2371  -10.7282 H           1 MOL       0.0778
     57 H22       -42.6695  -50.8607  -12.0376 H           1 MOL       0.0778
     58 H23       -47.1787  -39.8051    0.1376 H           1 MOL       0.0562
     59 H24       -47.7878  -37.4776   -0.0402 H           1 MOL       0.0600
     60 H25       -46.3174  -35.9161   -1.1670 H           1 MOL       0.0561
     61 H26       -43.6140  -39.0077   -1.9610 H           1 MOL       0.0562
     62 H27       -44.9519  -41.4945   -1.7332 H           1 MOL       0.1000
     63 H28       -44.2496  -36.6976   -2.1533 H           1 MOL       0.0600
     64 H29       -41.5029  -41.6162   -0.7185 H           1 MOL       0.0528
     65 H30       -42.3779  -40.9552   -2.1066 H           1 MOL       0.0528
     66 H31       -42.7101  -42.6124   -1.5455 H           1 MOL       0.0528
@<TRIPOS>BOND
     1     1    15   1
     2     1    16   1
     3    25     1  am
     4     2     4   1
     5    13     2   1
     6     3     4   2
     7     3     5   1
     8    14     3   1
     9     5     6  am
    10     6     7   1
    11     6     8   2
    12     7     9  ar
    13     7    12  ar
    14     9    10  ar
    15    10    24  ar
    16    12    11  ar
    17    11    24  ar
    18    13    14   2
    19    16    13   1
    20    15    14   1
    21    17    18   1
    22    17    22   1
    23    24    17   1
    24    18    19   1
    25    19    20   1
    26    21    20   1
    27    20    23   1
    28    22    21   1
    29    25    26   2
    30    32    25   1
    31    27    28  ar
    32    29    27  ar
    33    28    30  ar
    34    29    31  ar
    35    29    32   1
    36    30    33  ar
    37    31    33  ar
    38    32    35   1
    39    35    34   1
    40     2    36   1
    41     5    37   1
    42     9    38   1
    43    10    39   1
    44    11    40   1
    45    12    41   1
    46    15    42   1
    47    15    43   1
    48    16    44   1
    49    16    45   1
    50    18    46   1
    51    18    47   1
    52    19    48   1
    53    19    49   1
    54    20    50   1
    55    21    51   1
    56    21    52   1
    57    22    53   1
    58    22    54   1
    59    23    55   1
    60    23    56   1
    61    23    57   1
    62    27    58   1
    63    28    59   1
    64    30    60   1
    65    31    61   1
    66    32    62   1
    67    33    63   1
    68    34    64   1
    69    34    65   1
    70    34    66   1
@<TRIPOS>SUBSTRUCTURE
     1  MOL      3

