@<TRIPOS>MOLECULE
2v7a_ligand_070
    66    70
SMALL
GAST_HUCK
****
This file was generated by PARSER (from files_GN.cpp)

@<TRIPOS>ATOM
      1 N1        -42.4741  -47.9059   -9.0072 N.am        1 MOL      -0.2534
      2 N2        -43.4598  -51.3328   -9.5371 N.pl3       1 MOL      -0.2433
      3 C3        -44.4505  -50.7023   -7.7067 C.2         1 MOL       0.1027
      4 N4        -44.2688  -51.7119   -8.5861 N.2         1 MOL      -0.2404
      5 N5        -45.2569  -50.8364   -6.6210 N.am        1 MOL      -0.2391
      6 C6        -45.4729  -49.9860   -5.6166 C.2         1 MOL       0.2181
      7 C7        -46.3193  -50.3275   -4.5593 C.ar        1 MOL       0.0412
      8 O8        -44.8829  -48.9189   -5.5470 O.2         1 MOL      -0.3816
      9 C9        -47.5451  -50.9923   -4.7775 C.ar        1 MOL      -0.0531
     10 C10       -48.3982  -51.3134   -3.6989 C.ar        1 MOL      -0.0381
     11 C11       -46.8077  -50.3607   -2.1538 C.ar        1 MOL      -0.0381
     12 C12       -45.9740  -49.9966   -3.2284 C.ar        1 MOL      -0.0531
     13 C13       -43.0837  -50.0649   -9.3318 C.2         1 MOL       0.0786
     14 C14       -43.6869  -49.6442   -8.1874 C.2         1 MOL       0.0146
     15 C15       -43.3398  -48.2658   -7.9122 C.3         1 MOL       0.0514
     16 C16       -42.2729  -49.0124   -9.9310 C.3         1 MOL       0.0897
     17 N17       -48.8399  -51.3876   -1.2975 N.pl3       1 MOL      -0.2958
     18 C18       -50.2860  -51.2871   -1.3471 C.3         1 MOL       0.0680
     19 C19       -50.7896  -50.3947   -0.1779 C.3         1 MOL      -0.0118
     20 N20       -50.2613  -50.8726    1.1385 N.4         1 MOL       0.2359
     21 C21       -48.7686  -50.9716    1.1328 C.3         1 MOL      -0.0118
     22 C22       -48.3017  -51.8682   -0.0389 C.3         1 MOL       0.0680
     23 C23       -50.7733  -50.0857    2.2932 C.3         1 MOL      -0.0430
     24 C24       -48.0356  -51.0299   -2.3603 C.ar        1 MOL       0.0460
     25 C25       -41.9023  -46.6965   -9.1975 C.2         1 MOL       0.2222
     26 O26       -41.1432  -46.5606  -10.1495 O.2         1 MOL      -0.3907
     27 C27       -43.9208  -44.8743   -6.6720 C.ar        1 MOL      -0.0555
     28 C28       -45.2577  -44.6200   -6.3478 C.ar        1 MOL      -0.0680
     29 C29       -43.5161  -45.1569   -8.0016 C.ar        1 MOL       0.0044
     30 C31       -46.2314  -44.5934   -7.3577 C.ar        1 MOL      -0.0684
     31 C33       -44.5128  -45.1014   -9.0143 C.ar        1 MOL      -0.0555
     32 C20       -42.0986  -45.4837   -8.3686 C.3         1 MOL       0.1804
     33 C35       -45.8560  -44.8383   -8.6916 C.ar        1 MOL      -0.0680
     34 C36       -40.9041  -46.3926   -6.3176 C.3         1 MOL       0.0424
     35 O34       -41.1107  -45.3662   -7.3086 O.3         1 MOL      -0.3473
     36 H1        -43.1773  -51.8809  -10.2844 H           1 MOL       0.2389
     37 H2        -45.7172  -51.6891   -6.5558 H           1 MOL       0.2188
     38 H3        -47.8443  -51.2359   -5.7258 H           1 MOL       0.0636
     39 H4        -49.2629  -51.8163   -3.9046 H           1 MOL       0.0530
     40 H5        -46.5259  -50.0750   -1.2174 H           1 MOL       0.0530
     41 H6        -45.1038  -49.5009   -3.0189 H           1 MOL       0.0636
     42 H7        -44.2641  -47.6869   -7.8856 H           1 MOL       0.0576
     43 H8        -42.8283  -48.2312   -6.9522 H           1 MOL       0.0576
     44 H9        -41.2272  -49.3218   -9.9744 H           1 MOL       0.0708
     45 H10       -42.6459  -48.7745  -10.9301 H           1 MOL       0.0708
     46 H11       -50.7251  -52.2850   -1.2552 H           1 MOL       0.0569
     47 H12       -50.6517  -50.8506   -2.2800 H           1 MOL       0.0569
     48 H13       -51.8831  -50.4206   -0.1675 H           1 MOL       0.0834
     49 H14       -50.4776  -49.3598   -0.3556 H           1 MOL       0.0834
     50 H15       -50.6144  -51.8247    1.2635 H           1 MOL       0.2032
     51 H16       -48.4194  -51.4147    2.0698 H           1 MOL       0.0834
     52 H17       -48.3164  -49.9800    1.0330 H           1 MOL       0.0834
     53 H18       -47.2113  -51.9429   -0.0279 H           1 MOL       0.0569
     54 H19       -48.6757  -52.8825    0.1318 H           1 MOL       0.0569
     55 H20       -51.8656  -50.0900    2.3015 H           1 MOL       0.0778
     56 H21       -50.4273  -49.0498    2.2538 H           1 MOL       0.0778
     57 H22       -50.4386  -50.5307    3.2328 H           1 MOL       0.0778
     58 H23       -43.2467  -44.8452   -5.9095 H           1 MOL       0.0562
     59 H24       -45.5223  -44.4405   -5.3751 H           1 MOL       0.0600
     60 H25       -47.2052  -44.3958   -7.1260 H           1 MOL       0.0561
     61 H26       -44.2710  -45.2910   -9.9927 H           1 MOL       0.0562
     62 H27       -41.8361  -44.6286   -9.0048 H           1 MOL       0.1000
     63 H28       -46.5720  -44.8360   -9.4187 H           1 MOL       0.0600
     64 H29       -40.0983  -46.0680   -5.6608 H           1 MOL       0.0528
     65 H30       -40.6074  -47.3372   -6.7786 H           1 MOL       0.0528
     66 H31       -41.7793  -46.5491   -5.6877 H           1 MOL       0.0528
@<TRIPOS>BOND
     1     1    15   1
     2     1    16   1
     3    25     1  am
     4     2     4   1
     5    13     2   1
     6     3     4   2
     7     3     5   1
     8    14     3   1
     9     5     6  am
    10     6     7   1
    11     6     8   2
    12     7     9  ar
    13     7    12  ar
    14     9    10  ar
    15    10    24  ar
    16    12    11  ar
    17    11    24  ar
    18    13    14   2
    19    16    13   1
    20    15    14   1
    21    17    18   1
    22    17    22   1
    23    24    17   1
    24    18    19   1
    25    19    20   1
    26    21    20   1
    27    20    23   1
    28    22    21   1
    29    25    26   2
    30    32    25   1
    31    27    28  ar
    32    29    27  ar
    33    28    30  ar
    34    29    31  ar
    35    29    32   1
    36    30    33  ar
    37    31    33  ar
    38    32    35   1
    39    35    34   1
    40     2    36   1
    41     5    37   1
    42     9    38   1
    43    10    39   1
    44    11    40   1
    45    12    41   1
    46    15    42   1
    47    15    43   1
    48    16    44   1
    49    16    45   1
    50    18    46   1
    51    18    47   1
    52    19    48   1
    53    19    49   1
    54    20    50   1
    55    21    51   1
    56    21    52   1
    57    22    53   1
    58    22    54   1
    59    23    55   1
    60    23    56   1
    61    23    57   1
    62    27    58   1
    63    28    59   1
    64    30    60   1
    65    31    61   1
    66    32    62   1
    67    33    63   1
    68    34    64   1
    69    34    65   1
    70    34    66   1
@<TRIPOS>SUBSTRUCTURE
     1  MOL      3

