@<TRIPOS>MOLECULE
2v7a_ligand_063
    66    70
SMALL
GAST_HUCK
****
This file was generated by PARSER (from files_GN.cpp)

@<TRIPOS>ATOM
      1 N1        -44.3497  -48.1163  -10.0470 N.am        1 MOL      -0.2534
      2 N2        -46.2471  -50.9767  -11.1033 N.pl3       1 MOL      -0.2433
      3 C3        -46.2486  -51.0429   -8.9327 C.2         1 MOL       0.1027
      4 N4        -46.6779  -51.6324  -10.0710 N.2         1 MOL      -0.2404
      5 N5        -46.5363  -51.4144   -7.6604 N.am        1 MOL      -0.2391
      6 C6        -47.2346  -52.4909   -7.2866 C.2         1 MOL       0.2181
      7 C7        -47.4889  -52.7615   -5.9437 C.ar        1 MOL       0.0412
      8 O8        -47.6291  -53.3010   -8.1191 O.2         1 MOL      -0.3816
      9 C9        -47.4692  -54.0961   -5.4704 C.ar        1 MOL      -0.0531
     10 C10       -47.7203  -54.3936   -4.1190 C.ar        1 MOL      -0.0381
     11 C11       -48.1438  -52.0545   -3.6822 C.ar        1 MOL      -0.0381
     12 C12       -47.8157  -51.7424   -5.0192 C.ar        1 MOL      -0.0531
     13 C13       -45.5212  -49.9335  -10.6860 C.2         1 MOL       0.0786
     14 C14       -45.4763  -49.9479   -9.3219 C.2         1 MOL       0.0146
     15 C15       -44.6760  -48.8310   -8.8307 C.3         1 MOL       0.0514
     16 C16       -44.8305  -48.7869  -11.2404 C.3         1 MOL       0.0897
     17 N17       -48.3549  -53.6879   -1.8865 N.pl3       1 MOL      -0.2958
     18 C18       -47.5368  -54.6066   -1.1176 C.3         1 MOL       0.0680
     19 C19       -48.3865  -55.7837   -0.5769 C.3         1 MOL      -0.0118
     20 N20       -49.6210  -55.3205    0.1311 N.4         1 MOL       0.2359
     21 C21       -50.3921  -54.3314   -0.6879 C.3         1 MOL      -0.0118
     22 C22       -49.5204  -53.1521   -1.2117 C.3         1 MOL       0.0680
     23 C23       -49.3798  -54.8714    1.5331 C.3         1 MOL      -0.0430
     24 C24       -48.0748  -53.3829   -3.1979 C.ar        1 MOL       0.0460
     25 C25       -43.7127  -46.9381  -10.1026 C.2         1 MOL       0.2222
     26 O26       -43.7242  -46.3251  -11.1667 O.2         1 MOL      -0.3907
     27 C27       -41.0813  -44.7346   -8.4711 C.ar        1 MOL      -0.0555
     28 C28       -39.8521  -44.1309   -8.7814 C.ar        1 MOL      -0.0680
     29 C29       -41.6506  -45.7388   -9.2989 C.ar        1 MOL       0.0044
     30 C31       -39.1194  -44.5678   -9.8994 C.ar        1 MOL      -0.0684
     31 C33       -40.8546  -46.2040  -10.3838 C.ar        1 MOL      -0.0555
     32 C20       -43.0422  -46.2336   -8.9999 C.3         1 MOL       0.1804
     33 C35       -39.6083  -45.6301  -10.6789 C.ar        1 MOL      -0.0680
     34 C36       -45.0536  -45.2769   -7.9168 C.3         1 MOL       0.0424
     35 O34       -43.8398  -45.0710   -8.6609 O.3         1 MOL      -0.3473
     36 H1        -46.4448  -51.1936  -12.0283 H           1 MOL       0.2389
     37 H2        -46.1965  -50.8465   -6.9539 H           1 MOL       0.2188
     38 H3        -47.2596  -54.8689   -6.1055 H           1 MOL       0.0636
     39 H4        -47.7125  -55.3737   -3.8306 H           1 MOL       0.0530
     40 H5        -48.3847  -51.2903   -3.0480 H           1 MOL       0.0530
     41 H6        -47.8544  -50.7645   -5.3162 H           1 MOL       0.0636
     42 H7        -45.2684  -48.2123   -8.1561 H           1 MOL       0.0576
     43 H8        -43.7772  -49.1977   -8.3317 H           1 MOL       0.0576
     44 H9        -44.0077  -49.1069  -11.8875 H           1 MOL       0.0708
     45 H10       -45.5419  -48.1776  -11.8038 H           1 MOL       0.0708
     46 H11       -47.1054  -54.0598   -0.2735 H           1 MOL       0.0569
     47 H12       -46.6902  -55.0079   -1.6799 H           1 MOL       0.0569
     48 H13       -47.7709  -56.4056    0.0805 H           1 MOL       0.0834
     49 H14       -48.6853  -56.4126   -1.4191 H           1 MOL       0.0834
     50 H15       -50.2202  -56.1448    0.2138 H           1 MOL       0.2032
     51 H16       -51.2394  -53.9379   -0.1211 H           1 MOL       0.0834
     52 H17       -50.8079  -54.8602   -1.5501 H           1 MOL       0.0834
     53 H18       -50.1490  -52.5475   -1.8729 H           1 MOL       0.0569
     54 H19       -49.2088  -52.5152   -0.3800 H           1 MOL       0.0569
     55 H20       -50.3310  -54.6667    2.0276 H           1 MOL       0.0778
     56 H21       -48.7663  -53.9692    1.5719 H           1 MOL       0.0778
     57 H22       -48.8792  -55.6575    2.1022 H           1 MOL       0.0778
     58 H23       -41.5806  -44.4014   -7.6421 H           1 MOL       0.0562
     59 H24       -39.4856  -43.3690   -8.2019 H           1 MOL       0.0600
     60 H25       -38.2282  -44.1276  -10.1347 H           1 MOL       0.0561
     61 H26       -41.1864  -46.9632  -10.9822 H           1 MOL       0.0562
     62 H27       -42.9399  -46.8794   -8.1237 H           1 MOL       0.1000
     63 H28       -39.0562  -45.9768  -11.4699 H           1 MOL       0.0600
     64 H29       -45.4385  -44.3008   -7.6156 H           1 MOL       0.0528
     65 H30       -44.8840  -45.8703   -7.0138 H           1 MOL       0.0528
     66 H31       -45.7995  -45.7713   -8.5443 H           1 MOL       0.0528
@<TRIPOS>BOND
     1     1    15   1
     2     1    16   1
     3    25     1  am
     4     2     4   1
     5    13     2   1
     6     3     4   2
     7     3     5   1
     8    14     3   1
     9     5     6  am
    10     6     7   1
    11     6     8   2
    12     7     9  ar
    13     7    12  ar
    14     9    10  ar
    15    10    24  ar
    16    12    11  ar
    17    11    24  ar
    18    13    14   2
    19    16    13   1
    20    15    14   1
    21    17    18   1
    22    17    22   1
    23    24    17   1
    24    18    19   1
    25    19    20   1
    26    21    20   1
    27    20    23   1
    28    22    21   1
    29    25    26   2
    30    32    25   1
    31    27    28  ar
    32    29    27  ar
    33    28    30  ar
    34    29    31  ar
    35    29    32   1
    36    30    33  ar
    37    31    33  ar
    38    32    35   1
    39    35    34   1
    40     2    36   1
    41     5    37   1
    42     9    38   1
    43    10    39   1
    44    11    40   1
    45    12    41   1
    46    15    42   1
    47    15    43   1
    48    16    44   1
    49    16    45   1
    50    18    46   1
    51    18    47   1
    52    19    48   1
    53    19    49   1
    54    20    50   1
    55    21    51   1
    56    21    52   1
    57    22    53   1
    58    22    54   1
    59    23    55   1
    60    23    56   1
    61    23    57   1
    62    27    58   1
    63    28    59   1
    64    30    60   1
    65    31    61   1
    66    32    62   1
    67    33    63   1
    68    34    64   1
    69    34    65   1
    70    34    66   1
@<TRIPOS>SUBSTRUCTURE
     1  MOL      3

