@<TRIPOS>MOLECULE
2v7a_ligand_066
    66    70
SMALL
GAST_HUCK
****
This file was generated by PARSER (from files_GN.cpp)

@<TRIPOS>ATOM
      1 N1        -44.4387  -46.6180   -9.2627 N.am        1 MOL      -0.2534
      2 N2        -44.4063  -48.8923  -12.0351 N.pl3       1 MOL      -0.2433
      3 C3        -45.3821  -49.9667  -10.4266 C.2         1 MOL       0.1027
      4 N4        -44.9832  -50.0095  -11.7157 N.2         1 MOL      -0.2404
      5 N5        -46.0116  -51.0340   -9.8860 N.am        1 MOL      -0.2391
      6 C6        -46.4677  -51.2200   -8.6500 C.2         1 MOL       0.2181
      7 C7        -47.1129  -52.4105   -8.2677 C.ar        1 MOL       0.0412
      8 O8        -46.3196  -50.3303   -7.8210 O.2         1 MOL      -0.3816
      9 C9        -47.7178  -52.5382   -6.9897 C.ar        1 MOL      -0.0531
     10 C10       -48.3709  -53.7210   -6.5967 C.ar        1 MOL      -0.0381
     11 C11       -47.9074  -54.6927   -8.7565 C.ar        1 MOL      -0.0381
     12 C12       -47.2019  -53.5356   -9.1282 C.ar        1 MOL      -0.0531
     13 C13       -44.4048  -48.0783  -10.9763 C.2         1 MOL       0.0786
     14 C14       -45.0196  -48.7115   -9.9380 C.2         1 MOL       0.0146
     15 C15       -45.0669  -47.8288   -8.7763 C.3         1 MOL       0.0514
     16 C16       -43.9693  -46.7429  -10.6231 C.3         1 MOL       0.0897
     17 N17       -49.2298  -55.9329   -7.1354 N.pl3       1 MOL      -0.2958
     18 C18       -49.1248  -56.5234   -5.8130 C.3         1 MOL       0.0680
     19 C19       -48.6479  -57.9960   -5.9594 C.3         1 MOL      -0.0118
     20 N20       -49.4932  -58.7946   -6.9018 N.4         1 MOL       0.2359
     21 C21       -49.6507  -58.1095   -8.2233 C.3         1 MOL      -0.0118
     22 C22       -50.0868  -56.6292   -8.0808 C.3         1 MOL       0.0680
     23 C23       -50.7804  -59.2489   -6.3016 C.3         1 MOL      -0.0430
     24 C24       -48.5160  -54.8120   -7.4856 C.ar        1 MOL       0.0460
     25 C25       -44.3214  -45.4681   -8.5766 C.2         1 MOL       0.2222
     26 O26       -43.7613  -44.5219   -9.1189 O.2         1 MOL      -0.3907
     27 C27       -44.6014  -46.9493   -5.3502 C.ar        1 MOL      -0.0555
     28 C28       -43.8352  -47.7120   -4.4537 C.ar        1 MOL      -0.0680
     29 C29       -43.9817  -46.0357   -6.2371 C.ar        1 MOL       0.0044
     30 C31       -42.4356  -47.5827   -4.4404 C.ar        1 MOL      -0.0684
     31 C33       -42.5719  -45.8872   -6.1780 C.ar        1 MOL      -0.0555
     32 C20       -44.8030  -45.2530   -7.2082 C.3         1 MOL       0.1804
     33 C35       -41.8023  -46.6711   -5.3014 C.ar        1 MOL      -0.0680
     34 C36       -45.6174  -43.4683   -5.7198 C.3         1 MOL       0.0424
     35 O34       -44.7880  -43.8487   -6.8343 O.3         1 MOL      -0.3473
     36 H1        -44.0459  -48.6764  -12.9086 H           1 MOL       0.2389
     37 H2        -46.1430  -51.7640  -10.5079 H           1 MOL       0.2188
     38 H3        -47.7094  -51.7571   -6.3281 H           1 MOL       0.0636
     39 H4        -48.8130  -53.7455   -5.6747 H           1 MOL       0.0530
     40 H5        -47.9227  -55.4792   -9.4101 H           1 MOL       0.0530
     41 H6        -46.7565  -53.5385  -10.0476 H           1 MOL       0.0636
     42 H7        -46.1047  -47.6552   -8.4919 H           1 MOL       0.0576
     43 H8        -44.5086  -48.2704   -7.9494 H           1 MOL       0.0576
     44 H9        -42.8812  -46.6666  -10.6887 H           1 MOL       0.0708
     45 H10       -44.4473  -46.0107  -11.2744 H           1 MOL       0.0708
     46 H11       -50.0930  -56.4894   -5.3057 H           1 MOL       0.0569
     47 H12       -48.4025  -56.0086   -5.1719 H           1 MOL       0.0569
     48 H13       -48.6072  -58.4731   -4.9760 H           1 MOL       0.0834
     49 H14       -47.6264  -57.9904   -6.3508 H           1 MOL       0.0834
     50 H15       -48.9675  -59.6507   -7.0930 H           1 MOL       0.2032
     51 H16       -50.3682  -58.6426   -8.8544 H           1 MOL       0.0834
     52 H17       -48.6892  -58.1376   -8.7429 H           1 MOL       0.0834
     53 H18       -50.1030  -56.1716   -9.0744 H           1 MOL       0.0569
     54 H19       -51.1167  -56.5910   -7.7140 H           1 MOL       0.0569
     55 H20       -51.3300  -59.8708   -7.0100 H           1 MOL       0.0778
     56 H21       -51.4135  -58.4080   -6.0141 H           1 MOL       0.0778
     57 H22       -50.5844  -59.8569   -5.4166 H           1 MOL       0.0778
     58 H23       -45.6180  -47.0624   -5.3484 H           1 MOL       0.0562
     59 H24       -44.2952  -48.3598   -3.8099 H           1 MOL       0.0600
     60 H25       -41.8782  -48.1479   -3.8021 H           1 MOL       0.0561
     61 H26       -42.0942  -45.2199   -6.7895 H           1 MOL       0.0562
     62 H27       -45.8466  -45.5846   -7.2070 H           1 MOL       0.1000
     63 H28       -40.7837  -46.5715   -5.2782 H           1 MOL       0.0600
     64 H29       -45.4577  -42.4095   -5.5139 H           1 MOL       0.0528
     65 H30       -45.3630  -44.0333   -4.8207 H           1 MOL       0.0528
     66 H31       -46.6730  -43.6176   -5.9589 H           1 MOL       0.0528
@<TRIPOS>BOND
     1     1    15   1
     2     1    16   1
     3    25     1  am
     4     2     4   1
     5    13     2   1
     6     3     4   2
     7     3     5   1
     8    14     3   1
     9     5     6  am
    10     6     7   1
    11     6     8   2
    12     7     9  ar
    13     7    12  ar
    14     9    10  ar
    15    10    24  ar
    16    12    11  ar
    17    11    24  ar
    18    13    14   2
    19    16    13   1
    20    15    14   1
    21    17    18   1
    22    17    22   1
    23    24    17   1
    24    18    19   1
    25    19    20   1
    26    21    20   1
    27    20    23   1
    28    22    21   1
    29    25    26   2
    30    32    25   1
    31    27    28  ar
    32    29    27  ar
    33    28    30  ar
    34    29    31  ar
    35    29    32   1
    36    30    33  ar
    37    31    33  ar
    38    32    35   1
    39    35    34   1
    40     2    36   1
    41     5    37   1
    42     9    38   1
    43    10    39   1
    44    11    40   1
    45    12    41   1
    46    15    42   1
    47    15    43   1
    48    16    44   1
    49    16    45   1
    50    18    46   1
    51    18    47   1
    52    19    48   1
    53    19    49   1
    54    20    50   1
    55    21    51   1
    56    21    52   1
    57    22    53   1
    58    22    54   1
    59    23    55   1
    60    23    56   1
    61    23    57   1
    62    27    58   1
    63    28    59   1
    64    30    60   1
    65    31    61   1
    66    32    62   1
    67    33    63   1
    68    34    64   1
    69    34    65   1
    70    34    66   1
@<TRIPOS>SUBSTRUCTURE
     1  MOL      3

