@<TRIPOS>MOLECULE
2v7a_ligand_015
    66    70
SMALL
GAST_HUCK
****
This file was generated by PARSER (from files_GN.cpp)

@<TRIPOS>ATOM
      1 N1        -42.2537  -47.9146   -9.2950 N.am        1 MOL      -0.2534
      2 N2        -39.6239  -48.2748  -11.7086 N.pl3       1 MOL      -0.2433
      3 C3        -40.7095  -50.1574  -11.7621 C.2         1 MOL       0.1027
      4 N4        -39.6599  -49.4575  -12.2497 N.2         1 MOL      -0.2404
      5 N5        -40.9629  -51.4141  -12.2040 N.am        1 MOL      -0.2391
      6 C6        -41.9705  -52.2403  -11.9303 C.2         1 MOL       0.2181
      7 C7        -42.1183  -53.4536  -12.6207 C.ar        1 MOL       0.0412
      8 O8        -42.8016  -51.9349  -11.0839 O.2         1 MOL      -0.3816
      9 C9        -42.8612  -54.5299  -12.0753 C.ar        1 MOL      -0.0531
     10 C10       -43.0331  -55.7368  -12.7818 C.ar        1 MOL      -0.0381
     11 C11       -41.7654  -54.8469  -14.6226 C.ar        1 MOL      -0.0381
     12 C12       -41.5750  -53.6450  -13.9146 C.ar        1 MOL      -0.0531
     13 C13       -40.6371  -48.1510  -10.8461 C.2         1 MOL       0.0786
     14 C14       -41.3419  -49.3207  -10.8407 C.2         1 MOL       0.0146
     15 C15       -42.4294  -49.2318   -9.8744 C.3         1 MOL       0.0514
     16 C16       -41.1810  -47.1690   -9.9164 C.3         1 MOL       0.0897
     17 N17       -42.6527  -57.1285  -14.7669 N.pl3       1 MOL      -0.2958
     18 C18       -41.7109  -57.6071  -15.7727 C.3         1 MOL       0.0680
     19 C19       -42.4265  -57.8323  -17.1307 C.3         1 MOL      -0.0118
     20 N20       -43.6138  -58.7333  -17.0065 N.4         1 MOL       0.2359
     21 C21       -44.5218  -58.2873  -15.9040 C.3         1 MOL      -0.0118
     22 C22       -43.7865  -58.0228  -14.5584 C.3         1 MOL       0.0680
     23 C23       -43.2732  -60.1860  -16.9598 C.3         1 MOL      -0.0430
     24 C24       -42.4916  -55.9407  -14.0792 C.ar        1 MOL       0.0460
     25 C25       -42.9807  -47.4794   -8.2500 C.2         1 MOL       0.2222
     26 O26       -43.7711  -48.2575   -7.7212 O.2         1 MOL      -0.3907
     27 C27       -44.7493  -45.5999   -6.0168 C.ar        1 MOL      -0.0555
     28 C28       -45.9622  -44.9308   -5.7579 C.ar        1 MOL      -0.0680
     29 C29       -44.1426  -45.5426   -7.2963 C.ar        1 MOL       0.0044
     30 C31       -46.5936  -44.2088   -6.7815 C.ar        1 MOL      -0.0684
     31 C33       -44.8211  -44.8407   -8.3273 C.ar        1 MOL      -0.0555
     32 C20       -42.8169  -46.1857   -7.5729 C.3         1 MOL       0.1804
     33 C35       -46.0363  -44.1779   -8.0702 C.ar        1 MOL      -0.0680
     34 C36       -40.6305  -46.4767   -6.4609 C.3         1 MOL       0.0424
     35 O34       -42.0590  -46.3495   -6.3472 O.3         1 MOL      -0.3473
     36 H1        -38.9640  -47.5863  -11.9004 H           1 MOL       0.2389
     37 H2        -40.3022  -51.7606  -12.8216 H           1 MOL       0.2188
     38 H3        -43.2698  -54.4561  -11.1396 H           1 MOL       0.0636
     39 H4        -43.5214  -56.4904  -12.2968 H           1 MOL       0.0530
     40 H5        -41.4057  -54.8813  -15.5765 H           1 MOL       0.0530
     41 H6        -41.0641  -52.8921  -14.3817 H           1 MOL       0.0636
     42 H7        -43.4013  -49.3007  -10.3704 H           1 MOL       0.0576
     43 H8        -42.3145  -50.0198   -9.1241 H           1 MOL       0.0576
     44 H9        -40.4167  -46.8749   -9.1888 H           1 MOL       0.0708
     45 H10       -41.5654  -46.2986  -10.4615 H           1 MOL       0.0708
     46 H11       -41.2906  -58.5566  -15.4293 H           1 MOL       0.0569
     47 H12       -40.8503  -56.9556  -15.9306 H           1 MOL       0.0569
     48 H13       -41.7126  -58.2270  -17.8574 H           1 MOL       0.0834
     49 H14       -42.7624  -56.8637  -17.5099 H           1 MOL       0.0834
     50 H15       -44.1446  -58.6144  -17.8724 H           1 MOL       0.2032
     51 H16       -45.3235  -59.0148  -15.7458 H           1 MOL       0.0834
     52 H17       -45.0028  -57.3566  -16.2202 H           1 MOL       0.0834
     53 H18       -44.5368  -57.6253  -13.8734 H           1 MOL       0.0569
     54 H19       -43.4342  -58.9691  -14.1399 H           1 MOL       0.0569
     55 H20       -44.1841  -60.7856  -16.9823 H           1 MOL       0.0778
     56 H21       -42.7107  -60.4441  -16.0621 H           1 MOL       0.0778
     57 H22       -42.6804  -60.4623  -17.8330 H           1 MOL       0.0778
     58 H23       -44.3204  -46.1334   -5.2594 H           1 MOL       0.0562
     59 H24       -46.3747  -44.9590   -4.8230 H           1 MOL       0.0600
     60 H25       -47.4601  -43.7030   -6.5858 H           1 MOL       0.0561
     61 H26       -44.4233  -44.8044   -9.2682 H           1 MOL       0.0562
     62 H27       -42.2689  -45.4735   -8.1958 H           1 MOL       0.1000
     63 H28       -46.5013  -43.6580   -8.8181 H           1 MOL       0.0600
     64 H29       -40.2179  -46.5989   -5.4581 H           1 MOL       0.0528
     65 H30       -40.1884  -45.5821   -6.9044 H           1 MOL       0.0528
     66 H31       -40.3644  -47.3456   -7.0662 H           1 MOL       0.0528
@<TRIPOS>BOND
     1     1    15   1
     2     1    16   1
     3    25     1  am
     4     2     4   1
     5    13     2   1
     6     3     4   2
     7     3     5   1
     8    14     3   1
     9     5     6  am
    10     6     7   1
    11     6     8   2
    12     7     9  ar
    13     7    12  ar
    14     9    10  ar
    15    10    24  ar
    16    12    11  ar
    17    11    24  ar
    18    13    14   2
    19    16    13   1
    20    15    14   1
    21    17    18   1
    22    17    22   1
    23    24    17   1
    24    18    19   1
    25    19    20   1
    26    21    20   1
    27    20    23   1
    28    22    21   1
    29    25    26   2
    30    32    25   1
    31    27    28  ar
    32    29    27  ar
    33    28    30  ar
    34    29    31  ar
    35    29    32   1
    36    30    33  ar
    37    31    33  ar
    38    32    35   1
    39    35    34   1
    40     2    36   1
    41     5    37   1
    42     9    38   1
    43    10    39   1
    44    11    40   1
    45    12    41   1
    46    15    42   1
    47    15    43   1
    48    16    44   1
    49    16    45   1
    50    18    46   1
    51    18    47   1
    52    19    48   1
    53    19    49   1
    54    20    50   1
    55    21    51   1
    56    21    52   1
    57    22    53   1
    58    22    54   1
    59    23    55   1
    60    23    56   1
    61    23    57   1
    62    27    58   1
    63    28    59   1
    64    30    60   1
    65    31    61   1
    66    32    62   1
    67    33    63   1
    68    34    64   1
    69    34    65   1
    70    34    66   1
@<TRIPOS>SUBSTRUCTURE
     1  MOL      3

