@<TRIPOS>MOLECULE
2v7a_ligand_051
    66    70
SMALL
GAST_HUCK
****
This file was generated by PARSER (from files_GN.cpp)

@<TRIPOS>ATOM
      1 N1        -44.2985  -46.4502   -8.3273 N.am        1 MOL      -0.2534
      2 N2        -45.1276  -44.5497   -5.3644 N.pl3       1 MOL      -0.2433
      3 C3        -45.7432  -46.5971   -4.9869 C.2         1 MOL       0.1027
      4 N4        -45.6594  -45.3456   -4.4833 N.2         1 MOL      -0.2404
      5 N5        -46.1784  -47.7357   -4.3976 N.am        1 MOL      -0.2391
      6 C6        -46.6672  -47.8563   -3.1692 C.2         1 MOL       0.2181
      7 C7        -47.1395  -49.0855   -2.7302 C.ar        1 MOL       0.0412
      8 O8        -46.7988  -46.8925   -2.4274 O.2         1 MOL      -0.3816
      9 C9        -48.4562  -49.2217   -2.2468 C.ar        1 MOL      -0.0531
     10 C10       -48.9323  -50.4710   -1.7982 C.ar        1 MOL      -0.0381
     11 C11       -46.7659  -51.4537   -2.2320 C.ar        1 MOL      -0.0381
     12 C12       -46.2996  -50.2201   -2.7293 C.ar        1 MOL      -0.0531
     13 C13       -44.8361  -45.2421   -6.4761 C.2         1 MOL       0.0786
     14 C14       -45.2345  -46.5261   -6.2747 C.2         1 MOL       0.0146
     15 C15       -44.9539  -47.3647   -7.4186 C.3         1 MOL       0.0514
     16 C16       -44.2145  -45.1000   -7.7834 C.3         1 MOL       0.0897
     17 N17       -48.5430  -52.8210   -1.2783 N.pl3       1 MOL      -0.2958
     18 C18       -47.7103  -53.6866   -0.4639 C.3         1 MOL       0.0680
     19 C19       -48.3997  -53.9319    0.9056 C.3         1 MOL      -0.0118
     20 N20       -49.7892  -54.4488    0.7160 N.4         1 MOL       0.2359
     21 C21       -50.6116  -53.5469   -0.1468 C.3         1 MOL      -0.0118
     22 C22       -49.8955  -53.2989   -1.4973 C.3         1 MOL       0.0680
     23 C23       -50.4648  -54.7736    2.0024 C.3         1 MOL      -0.0430
     24 C24       -48.0930  -51.6086   -1.7597 C.ar        1 MOL       0.0460
     25 C25       -43.8123  -46.7734   -9.5431 C.2         1 MOL       0.2222
     26 O26       -43.2459  -45.8886  -10.1754 O.2         1 MOL      -0.3907
     27 C27       -42.8061  -49.8290   -8.9940 C.ar        1 MOL      -0.0555
     28 C28       -42.8130  -51.0080   -8.2233 C.ar        1 MOL      -0.0680
     29 C29       -44.0128  -49.2920   -9.5150 C.ar        1 MOL       0.0044
     30 C31       -44.0211  -51.6756   -7.9719 C.ar        1 MOL      -0.0684
     31 C33       -45.2220  -49.9817   -9.2367 C.ar        1 MOL      -0.0555
     32 C20       -44.0024  -48.0229  -10.3056 C.3         1 MOL       0.1804
     33 C35       -45.2288  -51.1556   -8.4704 C.ar        1 MOL      -0.0680
     34 C36       -45.3760  -48.6733  -12.2582 C.3         1 MOL       0.0424
     35 O34       -45.1845  -47.8068  -11.1167 O.3         1 MOL      -0.3473
     36 H1        -44.9054  -43.6194   -5.2032 H           1 MOL       0.2389
     37 H2        -46.1403  -48.5427   -4.9364 H           1 MOL       0.2188
     38 H3        -49.0922  -48.4183   -2.2307 H           1 MOL       0.0636
     39 H4        -49.8866  -50.5118   -1.4355 H           1 MOL       0.0530
     40 H5        -46.1292  -52.2532   -2.2661 H           1 MOL       0.0530
     41 H6        -45.3346  -50.1578   -3.0666 H           1 MOL       0.0636
     42 H7        -44.2961  -48.1754   -7.1032 H           1 MOL       0.0576
     43 H8        -45.8850  -47.7512   -7.8340 H           1 MOL       0.0576
     44 H9        -44.7798  -44.3905   -8.3915 H           1 MOL       0.0708
     45 H10       -43.1814  -44.7613   -7.6746 H           1 MOL       0.0708
     46 H11       -46.7204  -53.2700   -0.2566 H           1 MOL       0.0569
     47 H12       -47.5643  -54.6422   -0.9774 H           1 MOL       0.0569
     48 H13       -48.4170  -52.9935    1.4695 H           1 MOL       0.0834
     49 H14       -47.8038  -54.6548    1.4678 H           1 MOL       0.0834
     50 H15       -49.7001  -55.3329    0.2094 H           1 MOL       0.2032
     51 H16       -50.7852  -52.5866    0.3485 H           1 MOL       0.0834
     52 H17       -51.5831  -54.0072   -0.3502 H           1 MOL       0.0834
     53 H18       -49.8402  -54.2473   -2.0421 H           1 MOL       0.0569
     54 H19       -50.5045  -52.6325   -2.1132 H           1 MOL       0.0569
     55 H20       -51.4296  -55.2521    1.8109 H           1 MOL       0.0778
     56 H21       -50.6323  -53.8759    2.6025 H           1 MOL       0.0778
     57 H22       -49.8623  -55.4765    2.5840 H           1 MOL       0.0778
     58 H23       -41.9154  -49.3522   -9.1618 H           1 MOL       0.0562
     59 H24       -41.9423  -51.3778   -7.8378 H           1 MOL       0.0600
     60 H25       -44.0277  -52.5253   -7.4117 H           1 MOL       0.0561
     61 H26       -46.1174  -49.6039   -9.5548 H           1 MOL       0.0562
     62 H27       -43.1526  -48.1240  -10.9960 H           1 MOL       0.1000
     63 H28       -46.1126  -51.6325   -8.2712 H           1 MOL       0.0600
     64 H29       -46.2854  -48.3662  -12.7764 H           1 MOL       0.0528
     65 H30       -45.4961  -49.7168  -11.9661 H           1 MOL       0.0528
     66 H31       -44.5391  -48.5962  -12.9530 H           1 MOL       0.0528
@<TRIPOS>BOND
     1     1    15   1
     2     1    16   1
     3    25     1  am
     4     2     4   1
     5    13     2   1
     6     3     4   2
     7     3     5   1
     8    14     3   1
     9     5     6  am
    10     6     7   1
    11     6     8   2
    12     7     9  ar
    13     7    12  ar
    14     9    10  ar
    15    10    24  ar
    16    12    11  ar
    17    11    24  ar
    18    13    14   2
    19    16    13   1
    20    15    14   1
    21    17    18   1
    22    17    22   1
    23    24    17   1
    24    18    19   1
    25    19    20   1
    26    21    20   1
    27    20    23   1
    28    22    21   1
    29    25    26   2
    30    32    25   1
    31    27    28  ar
    32    29    27  ar
    33    28    30  ar
    34    29    31  ar
    35    29    32   1
    36    30    33  ar
    37    31    33  ar
    38    32    35   1
    39    35    34   1
    40     2    36   1
    41     5    37   1
    42     9    38   1
    43    10    39   1
    44    11    40   1
    45    12    41   1
    46    15    42   1
    47    15    43   1
    48    16    44   1
    49    16    45   1
    50    18    46   1
    51    18    47   1
    52    19    48   1
    53    19    49   1
    54    20    50   1
    55    21    51   1
    56    21    52   1
    57    22    53   1
    58    22    54   1
    59    23    55   1
    60    23    56   1
    61    23    57   1
    62    27    58   1
    63    28    59   1
    64    30    60   1
    65    31    61   1
    66    32    62   1
    67    33    63   1
    68    34    64   1
    69    34    65   1
    70    34    66   1
@<TRIPOS>SUBSTRUCTURE
     1  MOL      3

