@<TRIPOS>MOLECULE
2v7a_ligand_058
    66    70
SMALL
GAST_HUCK
****
This file was generated by PARSER (from files_GN.cpp)

@<TRIPOS>ATOM
      1 N1        -48.4886  -42.6038    0.9601 N.am        1 MOL      -0.2534
      2 N2        -45.7194  -44.7744    1.6347 N.pl3       1 MOL      -0.2433
      3 C3        -46.8302  -45.7511    0.0491 C.2         1 MOL       0.1027
      4 N4        -45.7494  -45.8104    0.8558 N.2         1 MOL      -0.2404
      5 N5        -47.0422  -46.7416   -0.8476 N.am        1 MOL      -0.2391
      6 C6        -48.0298  -46.9204   -1.7193 C.2         1 MOL       0.2181
      7 C7        -48.0234  -48.0057   -2.6107 C.ar        1 MOL       0.0412
      8 O8        -48.9728  -46.1385   -1.7352 O.2         1 MOL      -0.3816
      9 C9        -49.2132  -48.4530   -3.2365 C.ar        1 MOL      -0.0531
     10 C10       -49.2049  -49.5225   -4.1508 C.ar        1 MOL      -0.0381
     11 C11       -46.8264  -49.7661   -3.8501 C.ar        1 MOL      -0.0381
     12 C12       -46.8287  -48.6917   -2.9431 C.ar        1 MOL      -0.0531
     13 C13       -46.7699  -43.9941    1.3705 C.2         1 MOL       0.0786
     14 C14       -47.5004  -44.5706    0.3730 C.2         1 MOL       0.0146
     15 C15       -48.6465  -43.7265    0.0537 C.3         1 MOL       0.0514
     16 C16       -47.3331  -42.7363    1.8178 C.3         1 MOL       0.0897
     17 N17       -47.9911  -51.2418   -5.4041 N.pl3       1 MOL      -0.2958
     18 C18       -47.0793  -52.3710   -5.2944 C.3         1 MOL       0.0680
     19 C19       -47.8938  -53.6872   -5.2274 C.3         1 MOL      -0.0118
     20 N20       -48.8215  -53.7980   -6.3931 N.4         1 MOL       0.2359
     21 C21       -49.7239  -52.6108   -6.5049 C.3         1 MOL      -0.0118
     22 C22       -48.8921  -51.3075   -6.5442 C.3         1 MOL       0.0680
     23 C23       -49.5701  -55.0832   -6.4079 C.3         1 MOL      -0.0430
     24 C24       -48.0108  -50.2088   -4.4915 C.ar        1 MOL       0.0460
     25 C25       -49.3306  -41.5572    0.9647 C.2         1 MOL       0.2222
     26 O26       -50.2597  -41.5506    0.1625 O.2         1 MOL      -0.3907
     27 C27       -47.5290  -38.7681    0.9694 C.ar        1 MOL      -0.0555
     28 C28       -47.1732  -37.6128    0.2502 C.ar        1 MOL      -0.0680
     29 C29       -48.8824  -39.1752    1.0674 C.ar        1 MOL       0.0044
     30 C31       -48.1663  -36.8414   -0.3778 C.ar        1 MOL      -0.0684
     31 C33       -49.8660  -38.4067    0.3957 C.ar        1 MOL      -0.0555
     32 C20       -49.2501  -40.3947    1.8539 C.3         1 MOL       0.1804
     33 C35       -49.5117  -37.2447   -0.3150 C.ar        1 MOL      -0.0680
     34 C36       -50.5775  -39.3895    3.6672 C.3         1 MOL       0.0424
     35 O34       -50.5197  -40.2830    2.5420 O.3         1 MOL      -0.3473
     36 H1        -45.0292  -44.5912    2.2873 H           1 MOL       0.2389
     37 H2        -46.3627  -47.4311   -0.8372 H           1 MOL       0.2188
     38 H3        -50.1118  -48.0127   -3.0214 H           1 MOL       0.0636
     39 H4        -50.1039  -49.8260   -4.5288 H           1 MOL       0.0530
     40 H5        -45.9225  -50.1770   -4.0888 H           1 MOL       0.0530
     41 H6        -45.9278  -48.3941   -2.5618 H           1 MOL       0.0636
     42 H7        -48.5977  -43.4033   -0.9891 H           1 MOL       0.0576
     43 H8        -49.5800  -44.2609    0.2473 H           1 MOL       0.0576
     44 H9        -47.6092  -42.8080    2.8725 H           1 MOL       0.0708
     45 H10       -46.6111  -41.9323    1.6600 H           1 MOL       0.0708
     46 H11       -46.4508  -52.3485   -4.4023 H           1 MOL       0.0569
     47 H12       -46.4147  -52.3955   -6.1621 H           1 MOL       0.0569
     48 H13       -48.4552  -53.7144   -4.2867 H           1 MOL       0.0834
     49 H14       -47.1940  -54.5261   -5.2273 H           1 MOL       0.0834
     50 H15       -48.2330  -53.7945   -7.2292 H           1 MOL       0.2032
     51 H16       -50.4184  -52.5686   -5.6591 H           1 MOL       0.0834
     52 H17       -50.3105  -52.6748   -7.4260 H           1 MOL       0.0834
     53 H18       -48.2944  -51.3033   -7.4597 H           1 MOL       0.0569
     54 H19       -49.5689  -50.4561   -6.6289 H           1 MOL       0.0569
     55 H20       -50.1529  -55.1668   -7.3269 H           1 MOL       0.0778
     56 H21       -50.2473  -55.1565   -5.5532 H           1 MOL       0.0778
     57 H22       -48.8768  -55.9261   -6.3795 H           1 MOL       0.0778
     58 H23       -46.7903  -39.3102    1.4238 H           1 MOL       0.0562
     59 H24       -46.1920  -37.3329    0.1847 H           1 MOL       0.0600
     60 H25       -47.9088  -35.9922   -0.8868 H           1 MOL       0.0561
     61 H26       -50.8502  -38.6833    0.4279 H           1 MOL       0.0562
     62 H27       -48.4869  -40.5608    2.6189 H           1 MOL       0.1000
     63 H28       -50.2324  -36.6902   -0.7828 H           1 MOL       0.0600
     64 H29       -51.6016  -39.3786    4.0397 H           1 MOL       0.0528
     65 H30       -50.3037  -38.3727    3.3810 H           1 MOL       0.0528
     66 H31       -49.9216  -39.7318    4.4697 H           1 MOL       0.0528
@<TRIPOS>BOND
     1     1    15   1
     2     1    16   1
     3    25     1  am
     4     2     4   1
     5    13     2   1
     6     3     4   2
     7     3     5   1
     8    14     3   1
     9     5     6  am
    10     6     7   1
    11     6     8   2
    12     7     9  ar
    13     7    12  ar
    14     9    10  ar
    15    10    24  ar
    16    12    11  ar
    17    11    24  ar
    18    13    14   2
    19    16    13   1
    20    15    14   1
    21    17    18   1
    22    17    22   1
    23    24    17   1
    24    18    19   1
    25    19    20   1
    26    21    20   1
    27    20    23   1
    28    22    21   1
    29    25    26   2
    30    32    25   1
    31    27    28  ar
    32    29    27  ar
    33    28    30  ar
    34    29    31  ar
    35    29    32   1
    36    30    33  ar
    37    31    33  ar
    38    32    35   1
    39    35    34   1
    40     2    36   1
    41     5    37   1
    42     9    38   1
    43    10    39   1
    44    11    40   1
    45    12    41   1
    46    15    42   1
    47    15    43   1
    48    16    44   1
    49    16    45   1
    50    18    46   1
    51    18    47   1
    52    19    48   1
    53    19    49   1
    54    20    50   1
    55    21    51   1
    56    21    52   1
    57    22    53   1
    58    22    54   1
    59    23    55   1
    60    23    56   1
    61    23    57   1
    62    27    58   1
    63    28    59   1
    64    30    60   1
    65    31    61   1
    66    32    62   1
    67    33    63   1
    68    34    64   1
    69    34    65   1
    70    34    66   1
@<TRIPOS>SUBSTRUCTURE
     1  MOL      3

