@<TRIPOS>MOLECULE
2v7a_ligand_011
    66    70
SMALL
GAST_HUCK
****
This file was generated by PARSER (from files_GN.cpp)

@<TRIPOS>ATOM
      1 N1        -45.3925  -45.1949   -5.5559 N.am        1 MOL      -0.2534
      2 N2        -48.3825  -45.2285   -3.5609 N.pl3       1 MOL      -0.2433
      3 C3        -47.8040  -47.3052   -3.8155 C.2         1 MOL       0.1027
      4 N4        -48.7200  -46.4556   -3.2894 N.2         1 MOL      -0.2404
      5 N5        -47.7916  -48.6565   -3.7923 N.am        1 MOL      -0.2391
      6 C6        -48.7405  -49.4500   -3.3077 C.2         1 MOL       0.2181
      7 C7        -48.6078  -50.8371   -3.3605 C.ar        1 MOL       0.0412
      8 O8        -49.7813  -48.9813   -2.8529 O.2         1 MOL      -0.3816
      9 C9        -47.3558  -51.4732   -3.1695 C.ar        1 MOL      -0.0531
     10 C10       -47.2541  -52.8762   -3.1635 C.ar        1 MOL      -0.0381
     11 C11       -49.6267  -53.0540   -3.6379 C.ar        1 MOL      -0.0381
     12 C12       -49.7418  -51.6564   -3.5779 C.ar        1 MOL      -0.0531
     13 C13       -47.2504  -45.2306   -4.2733 C.2         1 MOL       0.0786
     14 C14       -46.8488  -46.5205   -4.4474 C.2         1 MOL       0.0146
     15 C15       -45.6231  -46.5896   -5.2390 C.3         1 MOL       0.0514
     16 C16       -46.3577  -44.3069   -4.9372 C.3         1 MOL       0.0897
     17 N17       -48.2896  -55.0551   -3.4384 N.pl3       1 MOL      -0.2958
     18 C18       -48.8847  -55.8584   -4.4949 C.3         1 MOL       0.0680
     19 C19       -49.8539  -56.9107   -3.9122 C.3         1 MOL      -0.0118
     20 N20       -49.1718  -57.6928   -2.8367 N.4         1 MOL       0.2359
     21 C21       -48.6307  -56.8068   -1.7608 C.3         1 MOL      -0.0118
     22 C22       -47.6419  -55.7708   -2.3537 C.3         1 MOL       0.0680
     23 C23       -50.0315  -58.7863   -2.3088 C.3         1 MOL      -0.0430
     24 C24       -48.3831  -53.6910   -3.4214 C.ar        1 MOL       0.0460
     25 C25       -44.4124  -44.7187   -6.3376 C.2         1 MOL       0.2222
     26 O26       -44.3588  -43.5035   -6.5080 O.2         1 MOL      -0.3907
     27 C27       -43.1185  -47.4557   -8.6360 C.ar        1 MOL      -0.0555
     28 C28       -43.5672  -48.3181   -9.6535 C.ar        1 MOL      -0.0680
     29 C29       -43.9395  -46.4171   -8.1270 C.ar        1 MOL       0.0044
     30 C31       -44.8564  -48.1638  -10.1880 C.ar        1 MOL      -0.0684
     31 C33       -45.2363  -46.2719   -8.6929 C.ar        1 MOL      -0.0555
     32 C20       -43.4046  -45.5336   -7.0359 C.3         1 MOL       0.1804
     33 C35       -45.6966  -47.1474   -9.6981 C.ar        1 MOL      -0.0680
     34 C36       -41.0168  -45.0640   -7.6270 C.3         1 MOL       0.0424
     35 O34       -42.3930  -44.6518   -7.5893 O.3         1 MOL      -0.3473
     36 H1        -48.8868  -44.4381   -3.3127 H           1 MOL       0.2389
     37 H2        -47.0269  -49.0826   -4.2040 H           1 MOL       0.2188
     38 H3        -46.5143  -50.9182   -2.9985 H           1 MOL       0.0636
     39 H4        -46.3363  -53.2992   -3.0137 H           1 MOL       0.0530
     40 H5        -50.4733  -53.6073   -3.7779 H           1 MOL       0.0530
     41 H6        -50.6701  -51.2403   -3.6968 H           1 MOL       0.0636
     42 H7        -44.8122  -47.0078   -4.6429 H           1 MOL       0.0576
     43 H8        -45.7930  -47.1934   -6.1281 H           1 MOL       0.0576
     44 H9        -46.9176  -43.7339   -5.6804 H           1 MOL       0.0708
     45 H10       -45.8784  -43.6457   -4.2116 H           1 MOL       0.0708
     46 H11       -48.0862  -56.3760   -5.0274 H           1 MOL       0.0569
     47 H12       -49.4230  -55.2676   -5.2406 H           1 MOL       0.0569
     48 H13       -50.1711  -57.5759   -4.7217 H           1 MOL       0.0834
     49 H14       -50.7403  -56.3987   -3.5219 H           1 MOL       0.0834
     50 H15       -48.3540  -58.1295   -3.2701 H           1 MOL       0.2032
     51 H16       -48.0991  -57.4021   -1.0147 H           1 MOL       0.0834
     52 H17       -49.4455  -56.2766   -1.2529 H           1 MOL       0.0834
     53 H18       -47.3362  -55.1186   -1.5286 H           1 MOL       0.0569
     54 H19       -46.7462  -56.2741   -2.7231 H           1 MOL       0.0569
     55 H20       -50.2972  -59.4714   -3.1149 H           1 MOL       0.0778
     56 H21       -50.9490  -58.3930   -1.8638 H           1 MOL       0.0778
     57 H22       -49.4924  -59.3575   -1.5530 H           1 MOL       0.0778
     58 H23       -42.1767  -47.6012   -8.2642 H           1 MOL       0.0562
     59 H24       -42.9512  -49.0557  -10.0058 H           1 MOL       0.0600
     60 H25       -45.1828  -48.7863  -10.9344 H           1 MOL       0.0561
     61 H26       -45.8701  -45.5341   -8.3822 H           1 MOL       0.0562
     62 H27       -42.9510  -46.1567   -6.2591 H           1 MOL       0.1000
     63 H28       -46.6438  -47.0471  -10.0755 H           1 MOL       0.0600
     64 H29       -40.4183  -44.1871   -7.8891 H           1 MOL       0.0528
     65 H30       -40.8577  -45.8286   -8.3924 H           1 MOL       0.0528
     66 H31       -40.6792  -45.4327   -6.6528 H           1 MOL       0.0528
@<TRIPOS>BOND
     1     1    15   1
     2     1    16   1
     3    25     1  am
     4     2     4   1
     5    13     2   1
     6     3     4   2
     7     3     5   1
     8    14     3   1
     9     5     6  am
    10     6     7   1
    11     6     8   2
    12     7     9  ar
    13     7    12  ar
    14     9    10  ar
    15    10    24  ar
    16    12    11  ar
    17    11    24  ar
    18    13    14   2
    19    16    13   1
    20    15    14   1
    21    17    18   1
    22    17    22   1
    23    24    17   1
    24    18    19   1
    25    19    20   1
    26    21    20   1
    27    20    23   1
    28    22    21   1
    29    25    26   2
    30    32    25   1
    31    27    28  ar
    32    29    27  ar
    33    28    30  ar
    34    29    31  ar
    35    29    32   1
    36    30    33  ar
    37    31    33  ar
    38    32    35   1
    39    35    34   1
    40     2    36   1
    41     5    37   1
    42     9    38   1
    43    10    39   1
    44    11    40   1
    45    12    41   1
    46    15    42   1
    47    15    43   1
    48    16    44   1
    49    16    45   1
    50    18    46   1
    51    18    47   1
    52    19    48   1
    53    19    49   1
    54    20    50   1
    55    21    51   1
    56    21    52   1
    57    22    53   1
    58    22    54   1
    59    23    55   1
    60    23    56   1
    61    23    57   1
    62    27    58   1
    63    28    59   1
    64    30    60   1
    65    31    61   1
    66    32    62   1
    67    33    63   1
    68    34    64   1
    69    34    65   1
    70    34    66   1
@<TRIPOS>SUBSTRUCTURE
     1  MOL      3

