@<TRIPOS>MOLECULE
2v7a_ligand_014
    66    70
SMALL
GAST_HUCK
****
This file was generated by PARSER (from files_GN.cpp)

@<TRIPOS>ATOM
      1 N1        -40.5593  -46.6413   -9.5240 N.am        1 MOL      -0.2534
      2 N2        -38.7309  -47.4621  -12.5025 N.pl3       1 MOL      -0.2433
      3 C3        -40.3537  -48.9045  -12.4030 C.2         1 MOL       0.1027
      4 N4        -39.2519  -48.5068  -13.0737 N.2         1 MOL      -0.2404
      5 N5        -41.0669  -49.9750  -12.8281 N.am        1 MOL      -0.2391
      6 C6        -42.1979  -50.4923  -12.3557 C.2         1 MOL       0.2181
      7 C7        -42.7394  -51.6719  -12.8873 C.ar        1 MOL       0.0412
      8 O8        -42.8009  -49.9238  -11.4524 O.2         1 MOL      -0.3816
      9 C9        -44.1222  -51.9610  -12.7758 C.ar        1 MOL      -0.0531
     10 C10       -44.6680  -53.1484  -13.2945 C.ar        1 MOL      -0.0381
     11 C11       -42.4713  -53.8462  -14.0146 C.ar        1 MOL      -0.0381
     12 C12       -41.9274  -52.6450  -13.5242 C.ar        1 MOL      -0.0531
     13 C13       -39.4504  -47.1422  -11.4192 C.2         1 MOL       0.0786
     14 C14       -40.4753  -48.0359  -11.3174 C.2         1 MOL       0.0146
     15 C15       -41.2631  -47.7519  -10.1276 C.3         1 MOL       0.0514
     16 C16       -39.4544  -46.1707  -10.3356 C.3         1 MOL       0.0897
     17 N17       -44.3919  -55.3064  -14.3900 N.pl3       1 MOL      -0.2958
     18 C18       -43.6757  -56.5686  -14.3422 C.3         1 MOL       0.0680
     19 C19       -43.4992  -57.1316  -15.7700 C.3         1 MOL      -0.0118
     20 N20       -44.8274  -57.2718  -16.4378 N.4         1 MOL       0.2359
     21 C21       -45.6021  -55.9914  -16.4262 C.3         1 MOL      -0.0118
     22 C22       -45.7125  -55.3826  -14.9995 C.3         1 MOL       0.0680
     23 C23       -44.7100  -57.8559  -17.8046 C.3         1 MOL      -0.0430
     24 C24       -43.8574  -54.1311  -13.9176 C.ar        1 MOL       0.0460
     25 C25       -40.8573  -46.1107   -8.3255 C.2         1 MOL       0.2222
     26 O26       -40.2075  -45.1499   -7.9261 O.2         1 MOL      -0.3907
     27 C27       -43.8040  -45.3105   -8.2913 C.ar        1 MOL      -0.0555
     28 C28       -45.0922  -45.2075   -8.8474 C.ar        1 MOL      -0.0680
     29 C29       -43.2510  -46.5706   -7.9481 C.ar        1 MOL       0.0044
     30 C31       -45.8531  -46.3660   -9.0685 C.ar        1 MOL      -0.0684
     31 C33       -44.0532  -47.7249   -8.1526 C.ar        1 MOL      -0.0555
     32 C20       -41.8641  -46.6328   -7.3857 C.3         1 MOL       0.1804
     33 C35       -45.3399  -47.6259   -8.7136 C.ar        1 MOL      -0.0680
     34 C36       -40.3877  -48.1207   -6.0749 C.3         1 MOL       0.0424
     35 O34       -41.5036  -47.9716   -6.9712 O.3         1 MOL      -0.3473
     36 H1        -37.9305  -47.0044  -12.8071 H           1 MOL       0.2389
     37 H2        -40.6973  -50.4158  -13.6093 H           1 MOL       0.2188
     38 H3        -44.7582  -51.2948  -12.3297 H           1 MOL       0.0636
     39 H4        -45.6691  -53.3109  -13.1545 H           1 MOL       0.0530
     40 H5        -41.8368  -54.4937  -14.4861 H           1 MOL       0.0530
     41 H6        -40.9173  -52.5094  -13.6057 H           1 MOL       0.0636
     42 H7        -42.2750  -47.4648  -10.4185 H           1 MOL       0.0576
     43 H8        -41.2740  -48.6321   -9.4844 H           1 MOL       0.0576
     44 H9        -38.5016  -46.2052   -9.7993 H           1 MOL       0.0708
     45 H10       -39.6339  -45.1651  -10.7221 H           1 MOL       0.0708
     46 H11       -44.2586  -57.2793  -13.7490 H           1 MOL       0.0569
     47 H12       -42.6952  -56.5072  -13.8608 H           1 MOL       0.0569
     48 H13       -43.0124  -58.1074  -15.6944 H           1 MOL       0.0834
     49 H14       -42.8428  -56.4653  -16.3414 H           1 MOL       0.0834
     50 H15       -45.3609  -57.9412  -15.8794 H           1 MOL       0.2032
     51 H16       -46.6152  -56.1650  -16.8000 H           1 MOL       0.0834
     52 H17       -45.1209  -55.2547  -17.0787 H           1 MOL       0.0834
     53 H18       -46.1933  -54.4079  -15.1077 H           1 MOL       0.0569
     54 H19       -46.3656  -56.0010  -14.3777 H           1 MOL       0.0569
     55 H20       -44.1829  -58.8123  -17.7689 H           1 MOL       0.0778
     56 H21       -44.1668  -57.1850  -18.4765 H           1 MOL       0.0778
     57 H22       -45.7009  -58.0449  -18.2247 H           1 MOL       0.0778
     58 H23       -43.2647  -44.4565   -8.1387 H           1 MOL       0.0562
     59 H24       -45.4712  -44.2904   -9.0955 H           1 MOL       0.0600
     60 H25       -46.7807  -46.2934   -9.4901 H           1 MOL       0.0561
     61 H26       -43.7042  -48.6564   -7.9092 H           1 MOL       0.0562
     62 H27       -41.9046  -46.0167   -6.4783 H           1 MOL       0.1000
     63 H28       -45.8995  -48.4688   -8.8671 H           1 MOL       0.0600
     64 H29       -40.2598  -49.1823   -5.8624 H           1 MOL       0.0528
     65 H30       -40.5681  -47.5961   -5.1329 H           1 MOL       0.0528
     66 H31       -39.4697  -47.7485   -6.5270 H           1 MOL       0.0528
@<TRIPOS>BOND
     1     1    15   1
     2     1    16   1
     3    25     1  am
     4     2     4   1
     5    13     2   1
     6     3     4   2
     7     3     5   1
     8    14     3   1
     9     5     6  am
    10     6     7   1
    11     6     8   2
    12     7     9  ar
    13     7    12  ar
    14     9    10  ar
    15    10    24  ar
    16    12    11  ar
    17    11    24  ar
    18    13    14   2
    19    16    13   1
    20    15    14   1
    21    17    18   1
    22    17    22   1
    23    24    17   1
    24    18    19   1
    25    19    20   1
    26    21    20   1
    27    20    23   1
    28    22    21   1
    29    25    26   2
    30    32    25   1
    31    27    28  ar
    32    29    27  ar
    33    28    30  ar
    34    29    31  ar
    35    29    32   1
    36    30    33  ar
    37    31    33  ar
    38    32    35   1
    39    35    34   1
    40     2    36   1
    41     5    37   1
    42     9    38   1
    43    10    39   1
    44    11    40   1
    45    12    41   1
    46    15    42   1
    47    15    43   1
    48    16    44   1
    49    16    45   1
    50    18    46   1
    51    18    47   1
    52    19    48   1
    53    19    49   1
    54    20    50   1
    55    21    51   1
    56    21    52   1
    57    22    53   1
    58    22    54   1
    59    23    55   1
    60    23    56   1
    61    23    57   1
    62    27    58   1
    63    28    59   1
    64    30    60   1
    65    31    61   1
    66    32    62   1
    67    33    63   1
    68    34    64   1
    69    34    65   1
    70    34    66   1
@<TRIPOS>SUBSTRUCTURE
     1  MOL      3

