@<TRIPOS>MOLECULE
2v7a_ligand_047
    66    70
SMALL
GAST_HUCK
****
This file was generated by PARSER (from files_GN.cpp)

@<TRIPOS>ATOM
      1 N1        -43.3998  -45.7009   -7.3544 N.am        1 MOL      -0.2534
      2 N2        -46.5360  -44.8600   -5.8287 N.pl3       1 MOL      -0.2433
      3 C3        -46.3379  -47.0151   -5.6020 C.2         1 MOL       0.1027
      4 N4        -47.0811  -45.9218   -5.3105 N.2         1 MOL      -0.2404
      5 N5        -46.7112  -48.2482   -5.1818 N.am        1 MOL      -0.2391
      6 C6        -46.2344  -49.4434   -5.5085 C.2         1 MOL       0.2181
      7 C7        -46.7905  -50.5834   -4.9327 C.ar        1 MOL       0.0412
      8 O8        -45.3984  -49.5764   -6.3935 O.2         1 MOL      -0.3816
      9 C9        -47.0806  -51.7342   -5.7002 C.ar        1 MOL      -0.0531
     10 C10       -47.6987  -52.8593   -5.1216 C.ar        1 MOL      -0.0381
     11 C11       -47.6902  -51.7608   -2.9723 C.ar        1 MOL      -0.0381
     12 C12       -47.1006  -50.6238   -3.5537 C.ar        1 MOL      -0.0531
     13 C13       -45.4023  -45.2017   -6.4453 C.2         1 MOL       0.0786
     14 C14       -45.2544  -46.5545   -6.3502 C.2         1 MOL       0.0146
     15 C15       -44.0109  -46.9621   -6.9920 C.3         1 MOL       0.0514
     16 C16       -44.2849  -44.5781   -7.1234 C.3         1 MOL       0.0897
     17 N17       -48.6144  -54.0145   -3.1663 N.pl3       1 MOL      -0.2958
     18 C18       -48.2847  -54.4827   -1.8293 C.3         1 MOL       0.0680
     19 C19       -47.7154  -55.9261   -1.9146 C.3         1 MOL      -0.0118
     20 N20       -48.5904  -56.8664   -2.6860 N.4         1 MOL       0.2359
     21 C21       -49.0050  -56.2927   -4.0064 C.3         1 MOL      -0.0118
     22 C22       -49.5630  -54.8540   -3.8803 C.3         1 MOL       0.0680
     23 C23       -49.7264  -57.4230   -1.8905 C.3         1 MOL      -0.0430
     24 C24       -48.0191  -52.9100   -3.7375 C.ar        1 MOL       0.0460
     25 C25       -42.1373  -45.5416   -7.7863 C.2         1 MOL       0.2222
     26 O26       -41.7057  -44.3995   -7.9089 O.2         1 MOL      -0.3907
     27 C27       -40.9187  -47.2737  -10.4699 C.ar        1 MOL      -0.0555
     28 C28       -40.2519  -47.1678  -11.7079 C.ar        1 MOL      -0.0680
     29 C29       -40.5221  -46.4905   -9.3566 C.ar        1 MOL       0.0044
     30 C31       -39.1762  -46.2706  -11.8569 C.ar        1 MOL      -0.0684
     31 C33       -39.4442  -45.5859   -9.5356 C.ar        1 MOL      -0.0555
     32 C20       -41.1915  -46.6362   -8.0295 C.3         1 MOL       0.1804
     33 C35       -38.7781  -45.4783  -10.7682 C.ar        1 MOL      -0.0680
     34 C36       -40.5680  -46.9689   -5.6444 C.3         1 MOL       0.0424
     35 O34       -40.1680  -46.7056   -7.0167 O.3         1 MOL      -0.3473
     36 H1        -46.8891  -43.9562   -5.7828 H           1 MOL       0.2389
     37 H2        -47.4689  -48.2503   -4.5778 H           1 MOL       0.2188
     38 H3        -46.8753  -51.7557   -6.7044 H           1 MOL       0.0636
     39 H4        -47.8631  -53.6703   -5.7250 H           1 MOL       0.0530
     40 H5        -47.9357  -51.7130   -1.9795 H           1 MOL       0.0530
     41 H6        -46.9003  -49.8195   -2.9521 H           1 MOL       0.0636
     42 H7        -43.4167  -47.5149   -6.2622 H           1 MOL       0.0576
     43 H8        -44.2170  -47.5851   -7.8688 H           1 MOL       0.0576
     44 H9        -44.6075  -44.1152   -8.0602 H           1 MOL       0.0708
     45 H10       -43.8327  -43.8421   -6.4584 H           1 MOL       0.0708
     46 H11       -49.1772  -54.4723   -1.1993 H           1 MOL       0.0569
     47 H12       -47.5267  -53.8801   -1.3264 H           1 MOL       0.0569
     48 H13       -47.5260  -56.3114   -0.9090 H           1 MOL       0.0834
     49 H14       -46.7481  -55.8878   -2.4223 H           1 MOL       0.0834
     50 H15       -47.9975  -57.6661   -2.9177 H           1 MOL       0.2032
     51 H16       -49.7456  -56.9328   -4.4977 H           1 MOL       0.0834
     52 H17       -48.1285  -56.2694   -4.6561 H           1 MOL       0.0834
     53 H18       -49.8224  -54.4829   -4.8736 H           1 MOL       0.0569
     54 H19       -50.5030  -54.8792   -3.3198 H           1 MOL       0.0569
     55 H20       -50.2908  -58.1529   -2.4809 H           1 MOL       0.0778
     56 H21       -50.4139  -56.6398   -1.5586 H           1 MOL       0.0778
     57 H22       -49.3471  -57.9461   -1.0080 H           1 MOL       0.0778
     58 H23       -41.6933  -47.9339  -10.3919 H           1 MOL       0.0562
     59 H24       -40.5446  -47.7440  -12.5066 H           1 MOL       0.0600
     60 H25       -38.6892  -46.1931  -12.7550 H           1 MOL       0.0561
     61 H26       -39.1232  -45.0055   -8.7601 H           1 MOL       0.0562
     62 H27       -41.7001  -47.5989   -8.0184 H           1 MOL       0.1000
     63 H28       -37.9982  -44.8318  -10.8678 H           1 MOL       0.0600
     64 H29       -39.6598  -47.1159   -5.0479 H           1 MOL       0.0528
     65 H30       -41.1761  -47.8856   -5.5600 H           1 MOL       0.0528
     66 H31       -41.1183  -46.1107   -5.2249 H           1 MOL       0.0528
@<TRIPOS>BOND
     1     1    15   1
     2     1    16   1
     3    25     1  am
     4     2     4   1
     5    13     2   1
     6     3     4   2
     7     3     5   1
     8    14     3   1
     9     5     6  am
    10     6     7   1
    11     6     8   2
    12     7     9  ar
    13     7    12  ar
    14     9    10  ar
    15    10    24  ar
    16    12    11  ar
    17    11    24  ar
    18    13    14   2
    19    16    13   1
    20    15    14   1
    21    17    18   1
    22    17    22   1
    23    24    17   1
    24    18    19   1
    25    19    20   1
    26    21    20   1
    27    20    23   1
    28    22    21   1
    29    25    26   2
    30    32    25   1
    31    27    28  ar
    32    29    27  ar
    33    28    30  ar
    34    29    31  ar
    35    29    32   1
    36    30    33  ar
    37    31    33  ar
    38    32    35   1
    39    35    34   1
    40     2    36   1
    41     5    37   1
    42     9    38   1
    43    10    39   1
    44    11    40   1
    45    12    41   1
    46    15    42   1
    47    15    43   1
    48    16    44   1
    49    16    45   1
    50    18    46   1
    51    18    47   1
    52    19    48   1
    53    19    49   1
    54    20    50   1
    55    21    51   1
    56    21    52   1
    57    22    53   1
    58    22    54   1
    59    23    55   1
    60    23    56   1
    61    23    57   1
    62    27    58   1
    63    28    59   1
    64    30    60   1
    65    31    61   1
    66    32    62   1
    67    33    63   1
    68    34    64   1
    69    34    65   1
    70    34    66   1
@<TRIPOS>SUBSTRUCTURE
     1  MOL      3

