@<TRIPOS>MOLECULE
2v7a_ligand_081
    66    70
SMALL
GAST_HUCK
****
This file was generated by PARSER (from files_GN.cpp)

@<TRIPOS>ATOM
      1 N1        -48.5924  -45.6018   -2.2295 N.am        1 MOL      -0.2534
      2 N2        -45.9941  -44.9821   -4.6260 N.pl3       1 MOL      -0.2433
      3 C3        -46.5740  -47.0539   -4.9221 C.2         1 MOL       0.1027
      4 N4        -45.7588  -46.0537   -5.3214 N.2         1 MOL      -0.2404
      5 N5        -46.4957  -48.2744   -5.5029 N.am        1 MOL      -0.2391
      6 C6        -47.1344  -49.4070   -5.2279 C.2         1 MOL       0.2181
      7 C7        -46.9146  -50.5593   -5.9925 C.ar        1 MOL       0.0412
      8 O8        -47.8935  -49.4667   -4.2666 O.2         1 MOL      -0.3816
      9 C9        -46.4386  -50.4778   -7.3254 C.ar        1 MOL      -0.0531
     10 C10       -46.2029  -51.6269   -8.0928 C.ar        1 MOL      -0.0381
     11 C11       -46.9212  -53.0091   -6.2514 C.ar        1 MOL      -0.0381
     12 C12       -47.1609  -51.8595   -5.4802 C.ar        1 MOL      -0.0531
     13 C13       -46.9615  -45.2383   -3.7389 C.2         1 MOL       0.0786
     14 C14       -47.3633  -46.5300   -3.9008 C.2         1 MOL       0.0146
     15 C15       -48.4380  -46.8373   -2.9699 C.3         1 MOL       0.0514
     16 C16       -47.6739  -44.5721   -2.6658 C.3         1 MOL       0.0897
     17 N17       -46.2029  -54.0563   -8.3475 N.pl3       1 MOL      -0.2958
     18 C18       -45.0221  -54.2234   -9.1830 C.3         1 MOL       0.0680
     19 C19       -45.4258  -54.4075  -10.6661 C.3         1 MOL      -0.0118
     20 N20       -46.3656  -55.5615  -10.7900 N.4         1 MOL       0.2359
     21 C21       -47.5577  -55.4092   -9.8995 C.3         1 MOL      -0.0118
     22 C22       -47.1437  -55.1654   -8.4226 C.3         1 MOL       0.0680
     23 C23       -46.7276  -55.8480  -12.2058 C.3         1 MOL      -0.0430
     24 C24       -46.4339  -52.9335   -7.5854 C.ar        1 MOL       0.0460
     25 C25       -49.5036  -45.4646   -1.2533 C.2         1 MOL       0.2222
     26 O26       -50.2955  -46.3805   -1.0647 O.2         1 MOL      -0.3907
     27 C27       -47.4859  -43.2742    0.6288 C.ar        1 MOL      -0.0555
     28 C28       -46.4127  -43.3039    1.5412 C.ar        1 MOL      -0.0680
     29 C29       -48.4666  -44.2992    0.6203 C.ar        1 MOL       0.0044
     30 C31       -46.3062  -44.3558    2.4679 C.ar        1 MOL      -0.0684
     31 C33       -48.3409  -45.3439    1.5699 C.ar        1 MOL      -0.0555
     32 C20       -49.6190  -44.3218   -0.3367 C.3         1 MOL       0.1804
     33 C35       -47.2718  -45.3778    2.4813 C.ar        1 MOL      -0.0680
     34 C36       -50.8326  -42.2142   -0.7137 C.3         1 MOL       0.0424
     35 O34       -49.8006  -43.1271   -1.1325 O.3         1 MOL      -0.3473
     36 H1        -45.5192  -44.1405   -4.7165 H           1 MOL       0.2389
     37 H2        -45.8503  -48.3219   -6.2253 H           1 MOL       0.2188
     38 H3        -46.2702  -49.5709   -7.7660 H           1 MOL       0.0636
     39 H4        -45.9005  -51.4880   -9.0609 H           1 MOL       0.0530
     40 H5        -47.0654  -53.9167   -5.8041 H           1 MOL       0.0530
     41 H6        -47.4969  -51.9853   -4.5189 H           1 MOL       0.0636
     42 H7        -49.3478  -47.0916   -3.5190 H           1 MOL       0.0576
     43 H8        -48.1471  -47.6546   -2.3066 H           1 MOL       0.0576
     44 H9        -46.9626  -44.2851   -1.8896 H           1 MOL       0.0708
     45 H10       -48.1942  -43.6998   -3.0626 H           1 MOL       0.0708
     46 H11       -44.4871  -55.1184   -8.8531 H           1 MOL       0.0569
     47 H12       -44.2991  -53.4101   -9.1103 H           1 MOL       0.0569
     48 H13       -44.5204  -54.5992  -11.2496 H           1 MOL       0.0834
     49 H14       -45.8846  -53.4860  -11.0424 H           1 MOL       0.0834
     50 H15       -45.8572  -56.3832  -10.4552 H           1 MOL       0.2032
     51 H16       -48.1697  -56.3149   -9.9393 H           1 MOL       0.0834
     52 H17       -48.1726  -54.5700  -10.2352 H           1 MOL       0.0834
     53 H18       -48.0703  -54.9938   -7.8687 H           1 MOL       0.0569
     54 H19       -46.6771  -56.0669   -8.0147 H           1 MOL       0.0569
     55 H20       -45.8297  -56.0664  -12.7871 H           1 MOL       0.0778
     56 H21       -47.2447  -55.0005  -12.6638 H           1 MOL       0.0778
     57 H22       -47.3761  -56.7264  -12.2627 H           1 MOL       0.0778
     58 H23       -47.5338  -42.5042   -0.0420 H           1 MOL       0.0562
     59 H24       -45.7082  -42.5625    1.5308 H           1 MOL       0.0600
     60 H25       -45.5315  -44.3774    3.1352 H           1 MOL       0.0561
     61 H26       -49.0312  -46.0972    1.6015 H           1 MOL       0.0562
     62 H27       -50.5186  -44.4573    0.2782 H           1 MOL       0.1000
     63 H28       -47.1971  -46.1468    3.1523 H           1 MOL       0.0600
     64 H29       -50.7902  -41.3284   -1.3463 H           1 MOL       0.0528
     65 H30       -50.6963  -41.9070    0.3247 H           1 MOL       0.0528
     66 H31       -51.8168  -42.6736   -0.8287 H           1 MOL       0.0528
@<TRIPOS>BOND
     1     1    15   1
     2     1    16   1
     3    25     1  am
     4     2     4   1
     5    13     2   1
     6     3     4   2
     7     3     5   1
     8    14     3   1
     9     5     6  am
    10     6     7   1
    11     6     8   2
    12     7     9  ar
    13     7    12  ar
    14     9    10  ar
    15    10    24  ar
    16    12    11  ar
    17    11    24  ar
    18    13    14   2
    19    16    13   1
    20    15    14   1
    21    17    18   1
    22    17    22   1
    23    24    17   1
    24    18    19   1
    25    19    20   1
    26    21    20   1
    27    20    23   1
    28    22    21   1
    29    25    26   2
    30    32    25   1
    31    27    28  ar
    32    29    27  ar
    33    28    30  ar
    34    29    31  ar
    35    29    32   1
    36    30    33  ar
    37    31    33  ar
    38    32    35   1
    39    35    34   1
    40     2    36   1
    41     5    37   1
    42     9    38   1
    43    10    39   1
    44    11    40   1
    45    12    41   1
    46    15    42   1
    47    15    43   1
    48    16    44   1
    49    16    45   1
    50    18    46   1
    51    18    47   1
    52    19    48   1
    53    19    49   1
    54    20    50   1
    55    21    51   1
    56    21    52   1
    57    22    53   1
    58    22    54   1
    59    23    55   1
    60    23    56   1
    61    23    57   1
    62    27    58   1
    63    28    59   1
    64    30    60   1
    65    31    61   1
    66    32    62   1
    67    33    63   1
    68    34    64   1
    69    34    65   1
    70    34    66   1
@<TRIPOS>SUBSTRUCTURE
     1  MOL      3

