@<TRIPOS>MOLECULE
2v7a_ligand_048
    66    70
SMALL
GAST_HUCK
****
This file was generated by PARSER (from files_GN.cpp)

@<TRIPOS>ATOM
      1 N1        -46.3447  -44.4868   -2.0119 N.am        1 MOL      -0.2534
      2 N2        -45.8275  -45.1276    1.4874 N.pl3       1 MOL      -0.2433
      3 C3        -47.3669  -46.5171    0.8515 C.2         1 MOL       0.1027
      4 N4        -46.5567  -46.1367    1.8632 N.2         1 MOL      -0.2404
      5 N5        -48.1684  -47.5984    0.9600 N.am        1 MOL      -0.2391
      6 C6        -49.0665  -48.0718    0.1018 C.2         1 MOL       0.2181
      7 C7        -49.6953  -49.2872    0.3517 C.ar        1 MOL       0.0412
      8 O8        -49.3987  -47.4272   -0.8873 O.2         1 MOL      -0.3816
      9 C9        -51.0244  -49.5223   -0.0697 C.ar        1 MOL      -0.0531
     10 C10       -51.6628  -50.7467    0.2020 C.ar        1 MOL      -0.0381
     11 C11       -49.6480  -51.5678    1.2566 C.ar        1 MOL      -0.0381
     12 C12       -49.0214  -50.3326    1.0271 C.ar        1 MOL      -0.0531
     13 C13       -46.1033  -44.8356    0.2121 C.2         1 MOL       0.0786
     14 C14       -47.0790  -45.6765   -0.2211 C.2         1 MOL       0.0146
     15 C15       -47.3039  -45.5062   -1.6538 C.3         1 MOL       0.0514
     16 C16       -45.6015  -44.0051   -0.8627 C.3         1 MOL       0.0897
     17 N17       -51.5946  -53.0141    1.0911 N.pl3       1 MOL      -0.2958
     18 C18       -52.8664  -53.1139    1.7809 C.3         1 MOL       0.0680
     19 C19       -52.6893  -53.9821    3.0561 C.3         1 MOL      -0.0118
     20 N20       -52.0824  -55.3086    2.7230 N.4         1 MOL       0.2359
     21 C21       -50.7946  -55.1705    1.9752 C.3         1 MOL      -0.0118
     22 C22       -50.9893  -54.2818    0.7255 C.3         1 MOL       0.0680
     23 C23       -51.9378  -56.1863    3.9174 C.3         1 MOL      -0.0430
     24 C24       -50.9851  -51.8051    0.8559 C.ar        1 MOL       0.0460
     25 C25       -46.1021  -44.0197   -3.2520 C.2         1 MOL       0.2222
     26 O26       -45.3321  -43.0658   -3.3356 O.2         1 MOL      -0.3907
     27 C27       -48.8788  -45.3801   -4.7112 C.ar        1 MOL      -0.0555
     28 C28       -49.8337  -46.4148   -4.6422 C.ar        1 MOL      -0.0680
     29 C29       -47.4911  -45.6580   -4.6414 C.ar        1 MOL       0.0044
     30 C31       -49.4115  -47.7505   -4.5000 C.ar        1 MOL      -0.0684
     31 C33       -47.0861  -47.0128   -4.5690 C.ar        1 MOL      -0.0555
     32 C20       -46.4781  -44.5528   -4.5742 C.3         1 MOL       0.1804
     33 C35       -48.0381  -48.0493   -4.4926 C.ar        1 MOL      -0.0680
     34 C36       -46.6626  -43.5038   -6.7998 C.3         1 MOL       0.0424
     35 O34       -46.8952  -43.4274   -5.3773 O.3         1 MOL      -0.3473
     36 H1        -45.1251  -44.7147    2.0077 H           1 MOL       0.2389
     37 H2        -48.0655  -48.0965    1.7893 H           1 MOL       0.2188
     38 H3        -51.5517  -48.8028   -0.5725 H           1 MOL       0.0636
     39 H4        -52.6173  -50.8725   -0.1429 H           1 MOL       0.0530
     40 H5        -49.1226  -52.2767    1.7739 H           1 MOL       0.0530
     41 H6        -48.0543  -50.2216    1.3424 H           1 MOL       0.0636
     42 H7        -47.0977  -46.4688   -2.1359 H           1 MOL       0.0576
     43 H8        -48.3307  -45.1785   -1.8459 H           1 MOL       0.0576
     44 H9        -45.8004  -42.9508   -0.6539 H           1 MOL       0.0708
     45 H10       -44.5343  -44.1908   -0.9923 H           1 MOL       0.0708
     46 H11       -53.6071  -53.5754    1.1224 H           1 MOL       0.0569
     47 H12       -53.2627  -52.1428    2.0959 H           1 MOL       0.0569
     48 H13       -53.6712  -54.1270    3.5126 H           1 MOL       0.0834
     49 H14       -52.0579  -53.4473    3.7735 H           1 MOL       0.0834
     50 H15       -52.7383  -55.7790    2.0959 H           1 MOL       0.2032
     51 H16       -50.4498  -56.1539    1.6455 H           1 MOL       0.0834
     52 H17       -50.0222  -54.7343    2.6145 H           1 MOL       0.0834
     53 H18       -50.0341  -54.1741    0.2063 H           1 MOL       0.0569
     54 H19       -51.6575  -54.7960    0.0290 H           1 MOL       0.0569
     55 H20       -52.9023  -56.3240    4.4114 H           1 MOL       0.0778
     56 H21       -51.2340  -55.7564    4.6352 H           1 MOL       0.0778
     57 H22       -51.5756  -57.1748    3.6220 H           1 MOL       0.0778
     58 H23       -49.2134  -44.4173   -4.7828 H           1 MOL       0.0562
     59 H24       -50.8308  -46.1960   -4.6628 H           1 MOL       0.0600
     60 H25       -50.1020  -48.4999   -4.4094 H           1 MOL       0.0561
     61 H26       -46.0946  -47.2553   -4.5613 H           1 MOL       0.0562
     62 H27       -45.5368  -44.9395   -4.9876 H           1 MOL       0.1000
     63 H28       -47.7333  -49.0227   -4.4132 H           1 MOL       0.0600
     64 H29       -47.0170  -42.5806   -7.2487 H           1 MOL       0.0528
     65 H30       -47.2024  -44.3444   -7.2441 H           1 MOL       0.0528
     66 H31       -45.5974  -43.6065   -7.0139 H           1 MOL       0.0528
@<TRIPOS>BOND
     1     1    15   1
     2     1    16   1
     3    25     1  am
     4     2     4   1
     5    13     2   1
     6     3     4   2
     7     3     5   1
     8    14     3   1
     9     5     6  am
    10     6     7   1
    11     6     8   2
    12     7     9  ar
    13     7    12  ar
    14     9    10  ar
    15    10    24  ar
    16    12    11  ar
    17    11    24  ar
    18    13    14   2
    19    16    13   1
    20    15    14   1
    21    17    18   1
    22    17    22   1
    23    24    17   1
    24    18    19   1
    25    19    20   1
    26    21    20   1
    27    20    23   1
    28    22    21   1
    29    25    26   2
    30    32    25   1
    31    27    28  ar
    32    29    27  ar
    33    28    30  ar
    34    29    31  ar
    35    29    32   1
    36    30    33  ar
    37    31    33  ar
    38    32    35   1
    39    35    34   1
    40     2    36   1
    41     5    37   1
    42     9    38   1
    43    10    39   1
    44    11    40   1
    45    12    41   1
    46    15    42   1
    47    15    43   1
    48    16    44   1
    49    16    45   1
    50    18    46   1
    51    18    47   1
    52    19    48   1
    53    19    49   1
    54    20    50   1
    55    21    51   1
    56    21    52   1
    57    22    53   1
    58    22    54   1
    59    23    55   1
    60    23    56   1
    61    23    57   1
    62    27    58   1
    63    28    59   1
    64    30    60   1
    65    31    61   1
    66    32    62   1
    67    33    63   1
    68    34    64   1
    69    34    65   1
    70    34    66   1
@<TRIPOS>SUBSTRUCTURE
     1  MOL      3

