@<TRIPOS>MOLECULE
2v7a_ligand_043
    66    70
SMALL
GAST_HUCK
****
This file was generated by PARSER (from files_GN.cpp)

@<TRIPOS>ATOM
      1 N1        -50.3605  -46.1081    2.2366 N.am        1 MOL      -0.2534
      2 N2        -53.7764  -47.1406    1.8076 N.pl3       1 MOL      -0.2433
      3 C3        -52.5797  -48.5677    0.6932 C.2         1 MOL       0.1027
      4 N4        -53.8247  -48.2081    1.0754 N.2         1 MOL      -0.2404
      5 N5        -52.2053  -49.6506   -0.0309 N.am        1 MOL      -0.2391
      6 C6        -53.0154  -50.5681   -0.5673 C.2         1 MOL       0.2181
      7 C7        -52.5084  -51.6972   -1.2219 C.ar        1 MOL       0.0412
      8 O8        -54.2313  -50.4308   -0.4972 O.2         1 MOL      -0.3816
      9 C9        -51.2641  -52.2656   -0.8722 C.ar        1 MOL      -0.0531
     10 C10       -50.7964  -53.4432   -1.4952 C.ar        1 MOL      -0.0381
     11 C11       -52.7628  -53.4814   -2.8965 C.ar        1 MOL      -0.0381
     12 C12       -53.2543  -52.3350   -2.2403 C.ar        1 MOL      -0.0531
     13 C13       -52.5001  -46.7578    1.9412 C.2         1 MOL       0.0786
     14 C14       -51.7171  -47.6207    1.2366 C.2         1 MOL       0.0146
     15 C15       -50.3147  -47.2485    1.3411 C.3         1 MOL       0.0514
     16 C16       -51.7122  -45.7484    2.6199 C.3         1 MOL       0.0897
     17 N17       -51.0742  -55.2060   -3.1660 N.pl3       1 MOL      -0.2958
     18 C18       -50.8270  -55.2374   -4.5946 C.3         1 MOL       0.0680
     19 C19       -49.3496  -55.6572   -4.8552 C.3         1 MOL      -0.0118
     20 N20       -48.9619  -56.9217   -4.1539 N.4         1 MOL       0.2359
     21 C21       -49.3175  -56.8822   -2.6989 C.3         1 MOL      -0.0118
     22 C22       -50.7811  -56.4337   -2.4507 C.3         1 MOL       0.0680
     23 C23       -49.4234  -58.1516   -4.8575 C.3         1 MOL      -0.0430
     24 C24       -51.5295  -54.0691   -2.5304 C.ar        1 MOL       0.0460
     25 C25       -49.2899  -45.4588    2.7188 C.2         1 MOL       0.2222
     26 O26       -49.4623  -44.5870    3.5627 O.2         1 MOL      -0.3907
     27 C27       -46.1728  -43.8827    2.7478 C.ar        1 MOL      -0.0555
     28 C28       -45.6008  -42.6533    2.3787 C.ar        1 MOL      -0.0680
     29 C29       -47.1883  -44.4823    1.9589 C.ar        1 MOL       0.0044
     30 C31       -46.0131  -42.0072    1.2038 C.ar        1 MOL      -0.0684
     31 C33       -47.5736  -43.8237    0.7646 C.ar        1 MOL      -0.0555
     32 C20       -47.8891  -45.7434    2.3774 C.3         1 MOL       0.1804
     33 C35       -46.9955  -42.5982    0.3913 C.ar        1 MOL      -0.0680
     34 C36       -47.7248  -47.6559    3.9527 C.3         1 MOL       0.0424
     35 O34       -47.2265  -46.3822    3.4961 O.3         1 MOL      -0.3473
     36 H1        -54.5405  -46.7007    2.2129 H           1 MOL       0.2389
     37 H2        -51.2545  -49.7674   -0.1647 H           1 MOL       0.2188
     38 H3        -50.6838  -51.8503   -0.1397 H           1 MOL       0.0636
     39 H4        -49.8827  -53.8009   -1.2194 H           1 MOL       0.0530
     40 H5        -53.3557  -53.9141   -3.6085 H           1 MOL       0.0530
     41 H6        -54.1709  -51.9741   -2.5283 H           1 MOL       0.0636
     42 H7        -49.7421  -48.0770    1.7591 H           1 MOL       0.0576
     43 H8        -49.9252  -46.9710    0.3566 H           1 MOL       0.0576
     44 H9        -51.9806  -44.7507    2.2653 H           1 MOL       0.0708
     45 H10       -51.8646  -45.8281    3.7006 H           1 MOL       0.0708
     46 H11       -50.9719  -54.2671   -5.0728 H           1 MOL       0.0569
     47 H12       -51.5052  -55.9454   -5.0711 H           1 MOL       0.0569
     48 H13       -48.6934  -54.8580   -4.5002 H           1 MOL       0.0834
     49 H14       -49.1821  -55.7442   -5.9317 H           1 MOL       0.0834
     50 H15       -47.9404  -56.9636   -4.1845 H           1 MOL       0.2032
     51 H16       -48.6516  -56.1741   -2.2019 H           1 MOL       0.0834
     52 H17       -49.1495  -57.8574   -2.2312 H           1 MOL       0.0834
     53 H18       -51.4578  -57.2173   -2.8168 H           1 MOL       0.0569
     54 H19       -50.9576  -56.3676   -1.3730 H           1 MOL       0.0569
     55 H20       -49.0327  -58.1724   -5.8769 H           1 MOL       0.0778
     56 H21       -50.5134  -58.2118   -4.9034 H           1 MOL       0.0778
     57 H22       -49.0496  -59.0456   -4.3508 H           1 MOL       0.0778
     58 H23       -45.8547  -44.3196    3.6149 H           1 MOL       0.0562
     59 H24       -44.8840  -42.2262    2.9731 H           1 MOL       0.0600
     60 H25       -45.6013  -41.1095    0.9427 H           1 MOL       0.0561
     61 H26       -48.3022  -44.2254    0.1688 H           1 MOL       0.0562
     62 H27       -47.8087  -46.4233    1.5257 H           1 MOL       0.1000
     63 H28       -47.2976  -42.1275   -0.4645 H           1 MOL       0.0600
     64 H29       -47.0541  -48.0312    4.7234 H           1 MOL       0.0528
     65 H30       -47.7586  -48.3801    3.1374 H           1 MOL       0.0528
     66 H31       -48.7218  -47.5469    4.3895 H           1 MOL       0.0528
@<TRIPOS>BOND
     1     1    15   1
     2     1    16   1
     3    25     1  am
     4     2     4   1
     5    13     2   1
     6     3     4   2
     7     3     5   1
     8    14     3   1
     9     5     6  am
    10     6     7   1
    11     6     8   2
    12     7     9  ar
    13     7    12  ar
    14     9    10  ar
    15    10    24  ar
    16    12    11  ar
    17    11    24  ar
    18    13    14   2
    19    16    13   1
    20    15    14   1
    21    17    18   1
    22    17    22   1
    23    24    17   1
    24    18    19   1
    25    19    20   1
    26    21    20   1
    27    20    23   1
    28    22    21   1
    29    25    26   2
    30    32    25   1
    31    27    28  ar
    32    29    27  ar
    33    28    30  ar
    34    29    31  ar
    35    29    32   1
    36    30    33  ar
    37    31    33  ar
    38    32    35   1
    39    35    34   1
    40     2    36   1
    41     5    37   1
    42     9    38   1
    43    10    39   1
    44    11    40   1
    45    12    41   1
    46    15    42   1
    47    15    43   1
    48    16    44   1
    49    16    45   1
    50    18    46   1
    51    18    47   1
    52    19    48   1
    53    19    49   1
    54    20    50   1
    55    21    51   1
    56    21    52   1
    57    22    53   1
    58    22    54   1
    59    23    55   1
    60    23    56   1
    61    23    57   1
    62    27    58   1
    63    28    59   1
    64    30    60   1
    65    31    61   1
    66    32    62   1
    67    33    63   1
    68    34    64   1
    69    34    65   1
    70    34    66   1
@<TRIPOS>SUBSTRUCTURE
     1  MOL      3

