@<TRIPOS>MOLECULE
2v7a_ligand_036
    66    70
SMALL
GAST_HUCK
****
This file was generated by PARSER (from files_GN.cpp)

@<TRIPOS>ATOM
      1 N1        -41.0398  -46.4821  -10.7999 N.am        1 MOL      -0.2534
      2 N2        -39.0403  -48.1349  -13.2753 N.pl3       1 MOL      -0.2433
      3 C3        -40.8608  -49.3087  -13.1198 C.2         1 MOL       0.1027
      4 N4        -39.6417  -49.2072  -13.6947 N.2         1 MOL      -0.2404
      5 N5        -41.6441  -50.3836  -13.3772 N.am        1 MOL      -0.2391
      6 C6        -42.8454  -50.7113  -12.8867 C.2         1 MOL       0.2181
      7 C7        -43.4827  -51.9329  -13.1921 C.ar        1 MOL       0.0412
      8 O8        -43.4162  -49.9173  -12.1483 O.2         1 MOL      -0.3816
      9 C9        -44.6795  -52.3233  -12.5344 C.ar        1 MOL      -0.0531
     10 C10       -45.3050  -53.5580  -12.8058 C.ar        1 MOL      -0.0381
     11 C11       -43.6185  -54.0459  -14.4528 C.ar        1 MOL      -0.0381
     12 C12       -42.9690  -52.8313  -14.1578 C.ar        1 MOL      -0.0531
     13 C13       -39.8144  -47.5082  -12.3829 C.2         1 MOL       0.0786
     14 C14       -40.9805  -48.2062  -12.2750 C.2         1 MOL       0.0146
     15 C15       -41.8474  -47.5781  -11.2960 C.3         1 MOL       0.0514
     16 C16       -39.7708  -46.3735  -11.4824 C.3         1 MOL       0.0897
     17 N17       -45.4171  -55.6369  -14.0551 N.pl3       1 MOL      -0.2958
     18 C18       -45.6482  -56.6708  -13.0579 C.3         1 MOL       0.0680
     19 C19       -47.1622  -56.9934  -12.9349 C.3         1 MOL      -0.0118
     20 N20       -47.7992  -57.2907  -14.2573 N.4         1 MOL       0.2359
     21 C21       -47.4811  -56.2322  -15.2742 C.3         1 MOL      -0.0118
     22 C22       -45.9618  -55.9243  -15.3787 C.3         1 MOL       0.0680
     23 C23       -47.5400  -58.6774  -14.7541 C.3         1 MOL      -0.0430
     24 C24       -44.7961  -54.4490  -13.7767 C.ar        1 MOL       0.0460
     25 C25       -41.3913  -45.6332   -9.8184 C.2         1 MOL       0.2222
     26 O26       -40.6205  -44.7303   -9.5102 O.2         1 MOL      -0.3907
     27 C27       -42.3577  -47.9173   -8.0052 C.ar        1 MOL      -0.0555
     28 C28       -42.8683  -49.1452   -7.5364 C.ar        1 MOL      -0.0680
     29 C29       -43.1934  -46.9764   -8.6556 C.ar        1 MOL       0.0044
     30 C31       -44.2313  -49.4544   -7.7384 C.ar        1 MOL      -0.0684
     31 C33       -44.5657  -47.3039   -8.8263 C.ar        1 MOL      -0.0555
     32 C20       -42.6929  -45.6466   -9.1477 C.3         1 MOL       0.1804
     33 C35       -45.0772  -48.5311   -8.3756 C.ar        1 MOL      -0.0680
     34 C36       -42.0182  -44.7102   -6.9442 C.3         1 MOL       0.0424
     35 O34       -42.8395  -44.6311   -8.1275 O.3         1 MOL      -0.3473
     36 H1        -38.1478  -47.8675  -13.5333 H           1 MOL       0.2389
     37 H2        -41.2408  -51.0102  -13.9901 H           1 MOL       0.2188
     38 H3        -45.1236  -51.7113  -11.8449 H           1 MOL       0.0636
     39 H4        -46.1797  -53.7561  -12.3249 H           1 MOL       0.0530
     40 H5        -43.1908  -54.6413  -15.1565 H           1 MOL       0.0530
     41 H6        -42.1099  -52.6215  -14.6677 H           1 MOL       0.0636
     42 H7        -42.7630  -47.2167  -11.7765 H           1 MOL       0.0576
     43 H8        -42.0760  -48.3025  -10.5119 H           1 MOL       0.0576
     44 H9        -38.9314  -46.5047  -10.7976 H           1 MOL       0.0708
     45 H10       -39.6933  -45.4378  -12.0429 H           1 MOL       0.0708
     46 H11       -45.2667  -56.4183  -12.0698 H           1 MOL       0.0569
     47 H12       -45.1206  -57.5790  -13.3588 H           1 MOL       0.0569
     48 H13       -47.6700  -56.1338  -12.4840 H           1 MOL       0.0834
     49 H14       -47.2966  -57.8342  -12.2432 H           1 MOL       0.0834
     50 H15       -48.8078  -57.2435  -14.1005 H           1 MOL       0.2032
     51 H16       -48.0016  -55.3127  -14.9772 H           1 MOL       0.0834
     52 H17       -47.8716  -56.5082  -16.2582 H           1 MOL       0.0834
     53 H18       -45.4357  -56.7765  -15.8311 H           1 MOL       0.0569
     54 H19       -45.8674  -55.0871  -16.0788 H           1 MOL       0.0569
     55 H20       -47.8247  -59.4125  -13.9973 H           1 MOL       0.0778
     56 H21       -46.4875  -58.8290  -15.0021 H           1 MOL       0.0778
     57 H22       -48.1402  -58.8734  -15.6428 H           1 MOL       0.0778
     58 H23       -41.3712  -47.7117   -7.8502 H           1 MOL       0.0562
     59 H24       -42.2570  -49.8184   -7.0784 H           1 MOL       0.0600
     60 H25       -44.6088  -50.3456   -7.4044 H           1 MOL       0.0561
     61 H26       -45.2005  -46.6419   -9.2817 H           1 MOL       0.0562
     62 H27       -43.3843  -45.2978   -9.9211 H           1 MOL       0.1000
     63 H28       -46.0769  -48.7439   -8.5009 H           1 MOL       0.0600
     64 H29       -42.1226  -43.7684   -6.4190 H           1 MOL       0.0528
     65 H30       -40.9646  -44.8663   -7.1819 H           1 MOL       0.0528
     66 H31       -42.3640  -45.5119   -6.2929 H           1 MOL       0.0528
@<TRIPOS>BOND
     1     1    15   1
     2     1    16   1
     3    25     1  am
     4     2     4   1
     5    13     2   1
     6     3     4   2
     7     3     5   1
     8    14     3   1
     9     5     6  am
    10     6     7   1
    11     6     8   2
    12     7     9  ar
    13     7    12  ar
    14     9    10  ar
    15    10    24  ar
    16    12    11  ar
    17    11    24  ar
    18    13    14   2
    19    16    13   1
    20    15    14   1
    21    17    18   1
    22    17    22   1
    23    24    17   1
    24    18    19   1
    25    19    20   1
    26    21    20   1
    27    20    23   1
    28    22    21   1
    29    25    26   2
    30    32    25   1
    31    27    28  ar
    32    29    27  ar
    33    28    30  ar
    34    29    31  ar
    35    29    32   1
    36    30    33  ar
    37    31    33  ar
    38    32    35   1
    39    35    34   1
    40     2    36   1
    41     5    37   1
    42     9    38   1
    43    10    39   1
    44    11    40   1
    45    12    41   1
    46    15    42   1
    47    15    43   1
    48    16    44   1
    49    16    45   1
    50    18    46   1
    51    18    47   1
    52    19    48   1
    53    19    49   1
    54    20    50   1
    55    21    51   1
    56    21    52   1
    57    22    53   1
    58    22    54   1
    59    23    55   1
    60    23    56   1
    61    23    57   1
    62    27    58   1
    63    28    59   1
    64    30    60   1
    65    31    61   1
    66    32    62   1
    67    33    63   1
    68    34    64   1
    69    34    65   1
    70    34    66   1
@<TRIPOS>SUBSTRUCTURE
     1  MOL      3

