@<TRIPOS>MOLECULE
2v7a_ligand_038
    66    70
SMALL
GAST_HUCK
****
This file was generated by PARSER (from files_GN.cpp)

@<TRIPOS>ATOM
      1 N1        -49.4716  -44.0766   -0.0000 N.am        1 MOL      -0.2534
      2 N2        -51.1041  -47.2265   -0.5945 N.pl3       1 MOL      -0.2433
      3 C3        -49.3079  -47.2504   -1.8167 C.2         1 MOL       0.1027
      4 N4        -50.4026  -47.9412   -1.4255 N.2         1 MOL      -0.2404
      5 N5        -48.4108  -47.7817   -2.6823 N.am        1 MOL      -0.2391
      6 C6        -47.2900  -47.2537   -3.1733 C.2         1 MOL       0.2181
      7 C7        -46.4776  -47.9551   -4.0696 C.ar        1 MOL       0.0412
      8 O8        -46.9508  -46.1184   -2.8634 O.2         1 MOL      -0.3816
      9 C9        -45.6390  -47.2715   -4.9862 C.ar        1 MOL      -0.0531
     10 C10       -44.8061  -47.9717   -5.8797 C.ar        1 MOL      -0.0381
     11 C11       -45.6147  -50.0656   -4.9950 C.ar        1 MOL      -0.0381
     12 C12       -46.4431  -49.3694   -4.0960 C.ar        1 MOL      -0.0531
     13 C13       -50.5091  -46.0477   -0.4013 C.2         1 MOL       0.0786
     14 C14       -49.3778  -46.0299   -1.1558 C.2         1 MOL       0.0146
     15 C15       -48.6779  -44.7724   -0.9805 C.3         1 MOL       0.0514
     16 C16       -50.6694  -44.8116    0.3501 C.3         1 MOL       0.0897
     17 N17       -43.9634  -50.0726   -6.7930 N.pl3       1 MOL      -0.2958
     18 C18       -42.6547  -49.5907   -7.2061 C.3         1 MOL       0.0680
     19 C19       -42.5914  -49.4451   -8.7456 C.3         1 MOL      -0.0118
     20 N20       -42.9741  -50.7355   -9.3972 N.4         1 MOL       0.2359
     21 C21       -44.3194  -51.2056   -8.9459 C.3         1 MOL      -0.0118
     22 C22       -44.3621  -51.3313   -7.4013 C.3         1 MOL       0.0680
     23 C23       -42.8506  -50.6885  -10.8798 C.3         1 MOL      -0.0430
     24 C24       -44.7714  -49.3864   -5.9173 C.ar        1 MOL       0.0460
     25 C25       -49.1246  -42.9152    0.5843 C.2         1 MOL       0.2222
     26 O26       -49.9124  -42.4292    1.3998 O.2         1 MOL      -0.3907
     27 C27       -46.8393  -40.8898    2.3443 C.ar        1 MOL      -0.0555
     28 C28       -46.0665  -40.8521    3.5200 C.ar        1 MOL      -0.0680
     29 C29       -47.0789  -42.1130    1.6631 C.ar        1 MOL       0.0044
     30 C31       -45.5106  -42.0339    4.0354 C.ar        1 MOL      -0.0684
     31 C33       -46.5337  -43.2970    2.2151 C.ar        1 MOL      -0.0555
     32 C20       -47.8842  -42.1417    0.3927 C.3         1 MOL       0.1804
     33 C35       -45.7387  -43.2584    3.3801 C.ar        1 MOL      -0.0680
     34 C36       -45.7402  -42.7223   -0.8512 C.3         1 MOL       0.0424
     35 O34       -47.1555  -42.4748   -0.8173 O.3         1 MOL      -0.3473
     36 H1        -51.9282  -47.5141   -0.1742 H           1 MOL       0.2389
     37 H2        -48.6288  -48.6739   -2.9930 H           1 MOL       0.2188
     38 H3        -45.6357  -46.2480   -5.0248 H           1 MOL       0.0636
     39 H4        -44.2688  -47.4210   -6.5537 H           1 MOL       0.0530
     40 H5        -45.5876  -51.0847   -4.9277 H           1 MOL       0.0530
     41 H6        -46.9958  -49.9180   -3.4304 H           1 MOL       0.0636
     42 H7        -47.6753  -44.9758   -0.6066 H           1 MOL       0.0576
     43 H8        -48.6508  -44.2284   -1.9289 H           1 MOL       0.0576
     44 H9        -51.5760  -44.2921    0.0372 H           1 MOL       0.0708
     45 H10       -50.7119  -45.0363    1.4161 H           1 MOL       0.0708
     46 H11       -41.9073  -50.3264   -6.8942 H           1 MOL       0.0569
     47 H12       -42.3612  -48.6484   -6.7403 H           1 MOL       0.0569
     48 H13       -41.5722  -49.1697   -9.0284 H           1 MOL       0.0834
     49 H14       -43.2585  -48.6377   -9.0613 H           1 MOL       0.0834
     50 H15       -42.3008  -51.4365   -9.0756 H           1 MOL       0.2032
     51 H16       -44.5377  -52.1865   -9.3779 H           1 MOL       0.0834
     52 H17       -45.0973  -50.5078   -9.2738 H           1 MOL       0.0834
     53 H18       -45.3735  -51.6460   -7.1341 H           1 MOL       0.0569
     54 H19       -43.6758  -52.1208   -7.0890 H           1 MOL       0.0569
     55 H20       -41.8231  -50.4518  -11.1643 H           1 MOL       0.0778
     56 H21       -43.5172  -49.9367  -11.3095 H           1 MOL       0.0778
     57 H22       -43.0947  -51.6612  -11.3135 H           1 MOL       0.0778
     58 H23       -47.2186  -40.0121    1.9790 H           1 MOL       0.0562
     59 H24       -45.8994  -39.9585    3.9918 H           1 MOL       0.0600
     60 H25       -44.9361  -42.0029    4.8797 H           1 MOL       0.0561
     61 H26       -46.6752  -44.1971    1.7470 H           1 MOL       0.0562
     62 H27       -48.2064  -41.1203    0.1632 H           1 MOL       0.1000
     63 H28       -45.3342  -44.1173    3.7536 H           1 MOL       0.0600
     64 H29       -45.4219  -42.7532   -1.8858 H           1 MOL       0.0528
     65 H30       -45.5044  -43.6865   -0.4008 H           1 MOL       0.0528
     66 H31       -45.1949  -41.9303   -0.3332 H           1 MOL       0.0528
@<TRIPOS>BOND
     1     1    15   1
     2     1    16   1
     3    25     1  am
     4     2     4   1
     5    13     2   1
     6     3     4   2
     7     3     5   1
     8    14     3   1
     9     5     6  am
    10     6     7   1
    11     6     8   2
    12     7     9  ar
    13     7    12  ar
    14     9    10  ar
    15    10    24  ar
    16    12    11  ar
    17    11    24  ar
    18    13    14   2
    19    16    13   1
    20    15    14   1
    21    17    18   1
    22    17    22   1
    23    24    17   1
    24    18    19   1
    25    19    20   1
    26    21    20   1
    27    20    23   1
    28    22    21   1
    29    25    26   2
    30    32    25   1
    31    27    28  ar
    32    29    27  ar
    33    28    30  ar
    34    29    31  ar
    35    29    32   1
    36    30    33  ar
    37    31    33  ar
    38    32    35   1
    39    35    34   1
    40     2    36   1
    41     5    37   1
    42     9    38   1
    43    10    39   1
    44    11    40   1
    45    12    41   1
    46    15    42   1
    47    15    43   1
    48    16    44   1
    49    16    45   1
    50    18    46   1
    51    18    47   1
    52    19    48   1
    53    19    49   1
    54    20    50   1
    55    21    51   1
    56    21    52   1
    57    22    53   1
    58    22    54   1
    59    23    55   1
    60    23    56   1
    61    23    57   1
    62    27    58   1
    63    28    59   1
    64    30    60   1
    65    31    61   1
    66    32    62   1
    67    33    63   1
    68    34    64   1
    69    34    65   1
    70    34    66   1
@<TRIPOS>SUBSTRUCTURE
     1  MOL      3

