@<TRIPOS>MOLECULE
2v7a_ligand_010
    66    70
SMALL
GAST_HUCK
****
This file was generated by PARSER (from files_GN.cpp)

@<TRIPOS>ATOM
      1 N1        -48.4318  -42.4163   -0.3186 N.am        1 MOL      -0.2534
      2 N2        -51.4307  -43.7949   -1.7235 N.pl3       1 MOL      -0.2433
      3 C3        -49.8394  -45.1615   -2.2827 C.2         1 MOL       0.1027
      4 N4        -51.1664  -44.9114   -2.3333 N.2         1 MOL      -0.2404
      5 N5        -49.3301  -46.2922   -2.8168 N.am        1 MOL      -0.2391
      6 C6        -48.0653  -46.6733   -2.9629 C.2         1 MOL       0.2181
      7 C7        -47.8046  -47.9466   -3.4591 C.ar        1 MOL       0.0412
      8 O8        -47.1221  -45.9198   -2.7423 O.2         1 MOL      -0.3816
      9 C9        -48.5756  -49.0569   -3.0441 C.ar        1 MOL      -0.0531
     10 C10       -48.3128  -50.3451   -3.5367 C.ar        1 MOL      -0.0381
     11 C11       -46.5407  -49.4612   -4.9181 C.ar        1 MOL      -0.0381
     12 C12       -46.7689  -48.1750   -4.3948 C.ar        1 MOL      -0.0531
     13 C13       -50.2957  -43.2828   -1.2378 C.2         1 MOL       0.0786
     14 C14       -49.2659  -44.1087   -1.5748 C.2         1 MOL       0.0146
     15 C15       -48.0162  -43.6204   -1.0081 C.3         1 MOL       0.0514
     16 C16       -49.8537  -42.1614   -0.4336 C.3         1 MOL       0.0897
     17 N17       -47.0484  -51.8533   -4.9756 N.pl3       1 MOL      -0.2958
     18 C18       -47.1444  -53.0433   -4.1484 C.3         1 MOL       0.0680
     19 C19       -48.1678  -54.0371   -4.7480 C.3         1 MOL      -0.0118
     20 N20       -47.8005  -54.3680   -6.1576 N.4         1 MOL       0.2359
     21 C21       -47.6248  -53.1428   -7.0008 C.3         1 MOL      -0.0118
     22 C22       -46.6688  -52.1048   -6.3540 C.3         1 MOL       0.0680
     23 C23       -48.7407  -55.3495   -6.7702 C.3         1 MOL      -0.0430
     24 C24       -47.2939  -50.5874   -4.4915 C.ar        1 MOL       0.0460
     25 C25       -47.6169  -41.6042    0.3755 C.2         1 MOL       0.2222
     26 O26       -48.0778  -40.5738    0.8547 O.2         1 MOL      -0.3907
     27 C27       -45.3315  -39.7061   -0.4169 C.ar        1 MOL      -0.0555
     28 C28       -44.5630  -39.0256   -1.3808 C.ar        1 MOL      -0.0680
     29 C29       -45.3485  -41.1219   -0.3618 C.ar        1 MOL       0.0044
     30 C31       -43.7766  -39.7568   -2.2884 C.ar        1 MOL      -0.0684
     31 C33       -44.5324  -41.8354   -1.2751 C.ar        1 MOL      -0.0555
     32 C20       -46.1924  -41.8471    0.6337 C.3         1 MOL       0.1804
     33 C35       -43.7438  -41.1567   -2.2225 C.ar        1 MOL      -0.0680
     34 C36       -45.8700  -42.4177    3.0120 C.3         1 MOL       0.0424
     35 O34       -45.7610  -41.4398    1.9521 O.3         1 MOL      -0.3473
     36 H1        -52.3130  -43.4082   -1.6149 H           1 MOL       0.2389
     37 H2        -49.9986  -46.9122   -3.1550 H           1 MOL       0.2188
     38 H3        -49.3262  -48.9424   -2.3558 H           1 MOL       0.0636
     39 H4        -48.9300  -51.1001   -3.2295 H           1 MOL       0.0530
     40 H5        -45.7621  -49.5743   -5.5717 H           1 MOL       0.0530
     41 H6        -46.1883  -47.3980   -4.7264 H           1 MOL       0.0636
     42 H7        -47.6136  -44.3663   -0.3185 H           1 MOL       0.0576
     43 H8        -47.2956  -43.3992   -1.8007 H           1 MOL       0.0576
     44 H9        -50.0665  -41.2202   -0.9464 H           1 MOL       0.0708
     45 H10       -50.3418  -42.1877    0.5436 H           1 MOL       0.0708
     46 H11       -47.4031  -52.8451   -3.1067 H           1 MOL       0.0569
     47 H12       -46.1633  -53.5272   -4.1207 H           1 MOL       0.0569
     48 H13       -49.1701  -53.5974   -4.7004 H           1 MOL       0.0834
     49 H14       -48.1623  -54.9471   -4.1404 H           1 MOL       0.0834
     50 H15       -46.8973  -54.8466   -6.1098 H           1 MOL       0.2032
     51 H16       -48.5968  -52.6685   -7.1674 H           1 MOL       0.0834
     52 H17       -47.2195  -53.4266   -7.9753 H           1 MOL       0.0834
     53 H18       -45.6458  -52.4816   -6.3803 H           1 MOL       0.0569
     54 H19       -46.7086  -51.2121   -6.9820 H           1 MOL       0.0569
     55 H20       -48.4048  -55.6222   -7.7734 H           1 MOL       0.0778
     56 H21       -49.7539  -54.9423   -6.8392 H           1 MOL       0.0778
     57 H22       -48.7730  -56.2668   -6.1740 H           1 MOL       0.0778
     58 H23       -45.8768  -39.1563    0.2484 H           1 MOL       0.0562
     59 H24       -44.5679  -38.0044   -1.4188 H           1 MOL       0.0600
     60 H25       -43.2251  -39.2682   -2.9974 H           1 MOL       0.0561
     61 H26       -44.5027  -42.8556   -1.2623 H           1 MOL       0.0562
     62 H27       -45.9841  -42.9147    0.5572 H           1 MOL       0.1000
     63 H28       -43.1507  -41.6836   -2.8680 H           1 MOL       0.0600
     64 H29       -45.3760  -42.0268    3.8974 H           1 MOL       0.0528
     65 H30       -45.3864  -43.3635    2.7378 H           1 MOL       0.0528
     66 H31       -46.9213  -42.6100    3.2582 H           1 MOL       0.0528
@<TRIPOS>BOND
     1     1    15   1
     2     1    16   1
     3    25     1  am
     4     2     4   1
     5    13     2   1
     6     3     4   2
     7     3     5   1
     8    14     3   1
     9     5     6  am
    10     6     7   1
    11     6     8   2
    12     7     9  ar
    13     7    12  ar
    14     9    10  ar
    15    10    24  ar
    16    12    11  ar
    17    11    24  ar
    18    13    14   2
    19    16    13   1
    20    15    14   1
    21    17    18   1
    22    17    22   1
    23    24    17   1
    24    18    19   1
    25    19    20   1
    26    21    20   1
    27    20    23   1
    28    22    21   1
    29    25    26   2
    30    32    25   1
    31    27    28  ar
    32    29    27  ar
    33    28    30  ar
    34    29    31  ar
    35    29    32   1
    36    30    33  ar
    37    31    33  ar
    38    32    35   1
    39    35    34   1
    40     2    36   1
    41     5    37   1
    42     9    38   1
    43    10    39   1
    44    11    40   1
    45    12    41   1
    46    15    42   1
    47    15    43   1
    48    16    44   1
    49    16    45   1
    50    18    46   1
    51    18    47   1
    52    19    48   1
    53    19    49   1
    54    20    50   1
    55    21    51   1
    56    21    52   1
    57    22    53   1
    58    22    54   1
    59    23    55   1
    60    23    56   1
    61    23    57   1
    62    27    58   1
    63    28    59   1
    64    30    60   1
    65    31    61   1
    66    32    62   1
    67    33    63   1
    68    34    64   1
    69    34    65   1
    70    34    66   1
@<TRIPOS>SUBSTRUCTURE
     1  MOL      3

