@<TRIPOS>MOLECULE
2v7a_ligand_039
    66    70
SMALL
GAST_HUCK
****
This file was generated by PARSER (from files_GN.cpp)

@<TRIPOS>ATOM
      1 N1        -45.8235  -46.2563   -5.6239 N.am        1 MOL      -0.2534
      2 N2        -48.2352  -45.3692   -3.1292 N.pl3       1 MOL      -0.2433
      3 C3        -48.2253  -47.5389   -3.1852 C.2         1 MOL       0.1027
      4 N4        -48.7905  -46.4348   -2.6387 N.2         1 MOL      -0.2404
      5 N5        -48.5240  -48.8378   -2.9283 N.am        1 MOL      -0.2391
      6 C6        -49.4969  -49.2913   -2.1372 C.2         1 MOL       0.2181
      7 C7        -49.6907  -50.6554   -1.8968 C.ar        1 MOL       0.0412
      8 O8        -50.2739  -48.4969   -1.6129 O.2         1 MOL      -0.3816
      9 C9        -48.6278  -51.5878   -1.9363 C.ar        1 MOL      -0.0531
     10 C10       -48.8350  -52.9493   -1.6292 C.ar        1 MOL      -0.0381
     11 C11       -51.1702  -52.5170   -1.2518 C.ar        1 MOL      -0.0381
     12 C12       -50.9681  -51.1571   -1.5482 C.ar        1 MOL      -0.0531
     13 C13       -47.2945  -45.7265   -4.0066 C.2         1 MOL       0.0786
     14 C14       -47.2706  -47.0858   -4.0834 C.2         1 MOL       0.0146
     15 C15       -46.3015  -47.5195   -5.0819 C.3         1 MOL       0.0514
     16 C16       -46.3662  -45.1048   -4.9282 C.3         1 MOL       0.0897
     17 N17       -50.3291  -54.8084   -0.9887 N.pl3       1 MOL      -0.2958
     18 C18       -51.6413  -55.4480   -1.0625 C.3         1 MOL       0.0680
     19 C19       -51.6060  -56.6642   -2.0310 C.3         1 MOL      -0.0118
     20 N20       -50.4837  -57.6168   -1.7640 N.4         1 MOL       0.2359
     21 C21       -49.1796  -56.8972   -1.6130 C.3         1 MOL      -0.0118
     22 C22       -49.2676  -55.7282   -0.5951 C.3         1 MOL       0.0680
     23 C23       -50.7701  -58.5899   -0.6697 C.3         1 MOL      -0.0430
     24 C24       -50.1149  -53.4692   -1.2824 C.ar        1 MOL       0.0460
     25 C25       -44.9943  -46.1995   -6.6841 C.2         1 MOL       0.2222
     26 O26       -44.7368  -47.2416   -7.2817 O.2         1 MOL      -0.3907
     27 C27       -42.0145  -45.6303   -6.6473 C.ar        1 MOL      -0.0555
     28 C28       -40.6536  -45.8017   -6.9583 C.ar        1 MOL      -0.0680
     29 C29       -42.9411  -45.1772   -7.6201 C.ar        1 MOL       0.0044
     30 C31       -40.1829  -45.5106   -8.2501 C.ar        1 MOL      -0.0684
     31 C33       -42.4455  -44.9084   -8.9231 C.ar        1 MOL      -0.0555
     32 C20       -44.3831  -44.9784   -7.2362 C.3         1 MOL       0.1804
     33 C35       -41.0810  -45.0656   -9.2333 C.ar        1 MOL      -0.0680
     34 C36       -46.3460  -43.7455   -8.1468 C.3         1 MOL       0.0424
     35 O34       -45.1564  -44.5203   -8.3767 O.3         1 MOL      -0.3473
     36 H1        -48.4808  -44.4526   -2.9134 H           1 MOL       0.2389
     37 H2        -47.9769  -49.4992   -3.3855 H           1 MOL       0.2188
     38 H3        -47.6773  -51.2807   -2.1659 H           1 MOL       0.0636
     39 H4        -48.0237  -53.5620   -1.7080 H           1 MOL       0.0530
     40 H5        -52.1112  -52.7824   -0.9576 H           1 MOL       0.0530
     41 H6        -51.7779  -50.5294   -1.5041 H           1 MOL       0.0636
     42 H7        -45.4923  -48.0812   -4.6053 H           1 MOL       0.0576
     43 H8        -46.7954  -48.1385   -5.8389 H           1 MOL       0.0576
     44 H9        -46.9429  -44.4384   -5.5743 H           1 MOL       0.0708
     45 H10       -45.5979  -44.5510   -4.3855 H           1 MOL       0.0708
     46 H11       -52.4380  -54.8049   -1.4379 H           1 MOL       0.0569
     47 H12       -51.9403  -55.7835   -0.0632 H           1 MOL       0.0569
     48 H13       -51.4860  -56.2855   -3.0494 H           1 MOL       0.0834
     49 H14       -52.5699  -57.1823   -2.0012 H           1 MOL       0.0834
     50 H15       -50.3950  -58.1869   -2.6099 H           1 MOL       0.2032
     51 H16       -48.8956  -56.4893   -2.5881 H           1 MOL       0.0834
     52 H17       -48.3863  -57.5880   -1.3182 H           1 MOL       0.0834
     53 H18       -49.5036  -56.1308    0.3942 H           1 MOL       0.0569
     54 H19       -48.2787  -55.2763   -0.4941 H           1 MOL       0.0569
     55 H20       -51.6803  -59.1494   -0.8923 H           1 MOL       0.0778
     56 H21       -50.8953  -58.0967    0.2960 H           1 MOL       0.0778
     57 H22       -49.9567  -59.3132   -0.5889 H           1 MOL       0.0778
     58 H23       -42.3303  -45.8525   -5.6998 H           1 MOL       0.0562
     59 H24       -40.0079  -46.1375   -6.2414 H           1 MOL       0.0600
     60 H25       -39.1924  -45.6237   -8.4735 H           1 MOL       0.0561
     61 H26       -43.0680  -44.5890   -9.6685 H           1 MOL       0.0562
     62 H27       -44.3560  -44.1924   -6.4767 H           1 MOL       0.1000
     63 H28       -40.7439  -44.8566  -10.1775 H           1 MOL       0.0600
     64 H29       -46.7156  -43.3788   -9.1053 H           1 MOL       0.0528
     65 H30       -46.1347  -42.8845   -7.5128 H           1 MOL       0.0528
     66 H31       -47.1201  -44.3612   -7.6901 H           1 MOL       0.0528
@<TRIPOS>BOND
     1     1    15   1
     2     1    16   1
     3    25     1  am
     4     2     4   1
     5    13     2   1
     6     3     4   2
     7     3     5   1
     8    14     3   1
     9     5     6  am
    10     6     7   1
    11     6     8   2
    12     7     9  ar
    13     7    12  ar
    14     9    10  ar
    15    10    24  ar
    16    12    11  ar
    17    11    24  ar
    18    13    14   2
    19    16    13   1
    20    15    14   1
    21    17    18   1
    22    17    22   1
    23    24    17   1
    24    18    19   1
    25    19    20   1
    26    21    20   1
    27    20    23   1
    28    22    21   1
    29    25    26   2
    30    32    25   1
    31    27    28  ar
    32    29    27  ar
    33    28    30  ar
    34    29    31  ar
    35    29    32   1
    36    30    33  ar
    37    31    33  ar
    38    32    35   1
    39    35    34   1
    40     2    36   1
    41     5    37   1
    42     9    38   1
    43    10    39   1
    44    11    40   1
    45    12    41   1
    46    15    42   1
    47    15    43   1
    48    16    44   1
    49    16    45   1
    50    18    46   1
    51    18    47   1
    52    19    48   1
    53    19    49   1
    54    20    50   1
    55    21    51   1
    56    21    52   1
    57    22    53   1
    58    22    54   1
    59    23    55   1
    60    23    56   1
    61    23    57   1
    62    27    58   1
    63    28    59   1
    64    30    60   1
    65    31    61   1
    66    32    62   1
    67    33    63   1
    68    34    64   1
    69    34    65   1
    70    34    66   1
@<TRIPOS>SUBSTRUCTURE
     1  MOL      3

