@<TRIPOS>MOLECULE
2vl4_ligand_008
    25    25
SMALL
GAST_HUCK
****
This file was generated by PARSER (from files_GN.cpp)

@<TRIPOS>ATOM
      1 C1         27.1041   46.7415   -0.5292 C.3         1 MNM       0.1497
      2 C2         27.4922   48.2343   -0.3542 C.3         1 MNM       0.1091
      3 C3         28.1724   45.9611   -1.3500 C.3         1 MNM       0.0986
      4 O4         25.8125   46.6521   -1.1405 O.3         1 MNM      -0.3811
      5 O5         26.4695   48.9901    0.2911 O.3         1 MNM      -0.3504
      6 N6         27.7753   48.8517   -1.6711 N.4         1 MNM       0.2513
      7 O7         29.2978   45.7140   -0.5112 O.3         1 MNM      -0.3884
      8 C8         28.6221   46.6928   -2.6676 C.3         1 MNM       0.0509
      9 C9         27.6458   46.4541   -3.8691 C.3         1 MNM       0.0543
     10 C10        28.8869   48.2055   -2.3953 C.3         1 MNM      -0.0236
     11 O11        28.0354   45.3142   -4.6307 O.3         1 MNM      -0.3945
     12 H1         27.0093   46.2803    0.4654 H           1 MNM       0.0704
     13 H2         28.3753   48.3022    0.2750 H           1 MNM       0.1211
     14 H3         27.7733   44.9775   -1.5968 H           1 MNM       0.0627
     15 H4         25.7573   45.7123   -1.4586 H           1 MNM       0.2103
     16 H5         25.8100   49.1896   -0.4091 H           1 MNM       0.2155
     17 H6         28.0074   49.8376   -1.5270 H           1 MNM       0.2042
     18 H7         26.9311   48.7984   -2.2555 H           1 MNM       0.2042
     19 H8         29.9281   46.4565   -0.6828 H           1 MNM       0.2099
     20 H9         29.5848   46.2663   -2.9632 H           1 MNM       0.0401
     21 H10        27.6631   47.3079   -4.5569 H           1 MNM       0.0562
     22 H11        26.6163   46.3159   -3.5286 H           1 MNM       0.0562
     23 H12        29.8059   48.3330   -1.8027 H           1 MNM       0.0819
     24 H13        29.0429   48.7412   -3.3372 H           1 MNM       0.0819
     25 H14        28.0148   44.5605   -4.0066 H           1 MNM       0.2094
@<TRIPOS>BOND
     1     1     2   1
     2     1     3   1
     3     1     4   1
     4     2     5   1
     5     2     6   1
     6     3     7   1
     7     3     8   1
     8     6    10   1
     9     8     9   1
    10     8    10   1
    11     9    11   1
    12     1    12   1
    13     2    13   1
    14     3    14   1
    15     4    15   1
    16     5    16   1
    17     6    17   1
    18     6    18   1
    19     7    19   1
    20     8    20   1
    21     9    21   1
    22     9    22   1
    23    10    23   1
    24    10    24   1
    25    11    25   1
@<TRIPOS>SUBSTRUCTURE
     1  MNM      1

