@<TRIPOS>MOLECULE
2vl4_ligand_010
    25    25
SMALL
GAST_HUCK
****
This file was generated by PARSER (from files_GN.cpp)

@<TRIPOS>ATOM
      1 C1         28.1962   47.0342   -3.6044 C.3         1 MNM       0.1497
      2 C2         29.7220   47.3359   -3.6295 C.3         1 MNM       0.1091
      3 C3         27.4810   47.6826   -2.3757 C.3         1 MNM       0.0986
      4 O4         27.9282   45.6286   -3.6801 O.3         1 MNM      -0.3811
      5 O5         30.3787   46.5363   -4.6031 O.3         1 MNM      -0.3504
      6 N6         30.3615   47.1012   -2.3213 N.4         1 MNM       0.2513
      7 O7         27.2522   49.0699   -2.6423 O.3         1 MNM      -0.3884
      8 C8         28.2488   47.5327   -1.0195 C.3         1 MNM       0.0509
      9 C9         28.0471   46.1397   -0.3450 C.3         1 MNM       0.0543
     10 C10        29.7593   47.8636   -1.2037 C.3         1 MNM      -0.0236
     11 O11        26.7392   46.0264    0.2319 O.3         1 MNM      -0.3945
     12 H1         27.7514   47.4510   -4.5109 H           1 MNM       0.0704
     13 H2         29.8692   48.3850   -3.9141 H           1 MNM       0.1211
     14 H3         26.4837   47.2413   -2.2875 H           1 MNM       0.0627
     15 H4         28.6380   45.1544   -3.1968 H           1 MNM       0.2103
     16 H5         30.5320   45.6722   -4.1606 H           1 MNM       0.2155
     17 H6         31.3437   47.3566   -2.3886 H           1 MNM       0.2042
     18 H7         30.3012   46.1070   -2.1036 H           1 MNM       0.2042
     19 H8         28.1001   49.5381   -2.4732 H           1 MNM       0.2099
     20 H9         27.8344   48.2641   -0.3172 H           1 MNM       0.0401
     21 H10        28.7682   46.0162    0.4665 H           1 MNM       0.0562
     22 H11        28.1929   45.3290   -1.0603 H           1 MNM       0.0562
     23 H12        29.8787   48.9332   -1.3903 H           1 MNM       0.0819
     24 H13        30.3097   47.6342   -0.2909 H           1 MNM       0.0819
     25 H14        26.5851   45.0617    0.3020 H           1 MNM       0.2094
@<TRIPOS>BOND
     1     1     2   1
     2     1     3   1
     3     1     4   1
     4     2     5   1
     5     2     6   1
     6     3     7   1
     7     3     8   1
     8     6    10   1
     9     8     9   1
    10     8    10   1
    11     9    11   1
    12     1    12   1
    13     2    13   1
    14     3    14   1
    15     4    15   1
    16     5    16   1
    17     6    17   1
    18     6    18   1
    19     7    19   1
    20     8    20   1
    21     9    21   1
    22     9    22   1
    23    10    23   1
    24    10    24   1
    25    11    25   1
@<TRIPOS>SUBSTRUCTURE
     1  MNM      1

