@<TRIPOS>MOLECULE
2vl4_ligand_019
    25    25
SMALL
GAST_HUCK
****
This file was generated by PARSER (from files_GN.cpp)

@<TRIPOS>ATOM
      1 C1         27.2483   48.2283    0.0421 C.3         1 MNM       0.1497
      2 C2         27.7848   47.0046    0.8246 C.3         1 MNM       0.1091
      3 C3         27.6658   48.1602   -1.4586 C.3         1 MNM       0.0986
      4 O4         27.7249   49.4059    0.6607 O.3         1 MNM      -0.3811
      5 O5         29.2056   47.1005    0.9450 O.3         1 MNM      -0.3504
      6 N6         27.3926   45.7482    0.1606 N.4         1 MNM       0.2513
      7 O7         27.0625   49.2373   -2.1899 O.3         1 MNM      -0.3884
      8 C8         27.2550   46.7902   -2.0947 C.3         1 MNM       0.0509
      9 C9         27.6733   46.6574   -3.5931 C.3         1 MNM       0.0543
     10 C10        27.8446   45.6276   -1.2419 C.3         1 MNM      -0.0236
     11 O11        26.6766   47.2044   -4.4663 O.3         1 MNM      -0.3945
     12 H1         26.1578   48.2314    0.0986 H           1 MNM       0.0704
     13 H2         27.3631   46.9966    1.8162 H           1 MNM       0.1211
     14 H3         28.7587   48.3036   -1.5217 H           1 MNM       0.0627
     15 H4         27.4817   50.1293    0.0386 H           1 MNM       0.2103
     16 H5         29.5667   46.1815    0.8661 H           1 MNM       0.2155
     17 H6         26.3642   45.6836    0.1729 H           1 MNM       0.2042
     18 H7         27.7768   44.9657    0.7003 H           1 MNM       0.2042
     19 H8         27.5941   50.0329   -1.9436 H           1 MNM       0.2099
     20 H9         26.1689   46.7129   -2.0191 H           1 MNM       0.0401
     21 H10        27.8023   45.6078   -3.8877 H           1 MNM       0.0562
     22 H11        28.6093   47.1863   -3.7500 H           1 MNM       0.0562
     23 H12        27.4872   44.6648   -1.6088 H           1 MNM       0.0819
     24 H13        28.9439   45.6085   -1.2713 H           1 MNM       0.0819
     25 H14        26.8533   46.8023   -5.3520 H           1 MNM       0.2094
@<TRIPOS>BOND
     1     1     2   1
     2     1     3   1
     3     1     4   1
     4     2     5   1
     5     2     6   1
     6     3     7   1
     7     3     8   1
     8     6    10   1
     9     8     9   1
    10     8    10   1
    11     9    11   1
    12     1    12   1
    13     2    13   1
    14     3    14   1
    15     4    15   1
    16     5    16   1
    17     6    17   1
    18     6    18   1
    19     7    19   1
    20     8    20   1
    21     9    21   1
    22     9    22   1
    23    10    23   1
    24    10    24   1
    25    11    25   1
@<TRIPOS>SUBSTRUCTURE
     1  MNM      1

