@<TRIPOS>MOLECULE
2vl4_ligand_023
    25    25
SMALL
GAST_HUCK
****
This file was generated by PARSER (from files_GN.cpp)

@<TRIPOS>ATOM
      1 C1         28.1659   46.7083   -1.4792 C.3         1 MNM       0.1497
      2 C2         27.6654   48.1608   -1.6867 C.3         1 MNM       0.1091
      3 C3         29.6687   46.7019   -1.0759 C.3         1 MNM       0.0986
      4 O4         27.9508   45.9453   -2.6698 O.3         1 MNM      -0.3811
      5 O5         26.3216   48.1777   -2.1637 O.3         1 MNM      -0.3504
      6 N6         28.5371   48.8830   -2.6428 N.4         1 MNM       0.2513
      7 O7         29.7963   47.2288    0.2477 O.3         1 MNM      -0.3884
      8 C8         30.5783   47.5253   -2.0500 C.3         1 MNM       0.0509
      9 C9         30.8735   46.8036   -3.3976 C.3         1 MNM       0.0543
     10 C10        29.9649   48.9380   -2.2551 C.3         1 MNM      -0.0236
     11 O11        31.6738   47.6050   -4.2683 O.3         1 MNM      -0.3945
     12 H1         27.5864   46.2379   -0.6823 H           1 MNM       0.0704
     13 H2         27.6718   48.6913   -0.7315 H           1 MNM       0.1211
     14 H3         30.0114   45.6680   -1.0289 H           1 MNM       0.0627
     15 H4         28.5598   45.1784   -2.6134 H           1 MNM       0.2103
     16 H5         26.3225   47.6501   -2.9891 H           1 MNM       0.2155
     17 H6         28.2079   49.8427   -2.7051 H           1 MNM       0.2042
     18 H7         28.4580   48.4435   -3.5630 H           1 MNM       0.2042
     19 H8         30.5416   46.7339    0.6403 H           1 MNM       0.2099
     20 H9         31.5488   47.6613   -1.5579 H           1 MNM       0.0401
     21 H10        29.9564   46.5363   -3.9156 H           1 MNM       0.0562
     22 H11        31.4266   45.8852   -3.2051 H           1 MNM       0.0562
     23 H12        30.0540   49.5110   -1.3283 H           1 MNM       0.0819
     24 H13        30.5099   49.4863   -3.0234 H           1 MNM       0.0819
     25 H14        31.0437   48.1596   -4.7689 H           1 MNM       0.2094
@<TRIPOS>BOND
     1     1     2   1
     2     1     3   1
     3     1     4   1
     4     2     5   1
     5     2     6   1
     6     3     7   1
     7     3     8   1
     8     6    10   1
     9     8     9   1
    10     8    10   1
    11     9    11   1
    12     1    12   1
    13     2    13   1
    14     3    14   1
    15     4    15   1
    16     5    16   1
    17     6    17   1
    18     6    18   1
    19     7    19   1
    20     8    20   1
    21     9    21   1
    22     9    22   1
    23    10    23   1
    24    10    24   1
    25    11    25   1
@<TRIPOS>SUBSTRUCTURE
     1  MNM      1

