@<TRIPOS>MOLECULE
2vl4_ligand_015
    25    25
SMALL
GAST_HUCK
****
This file was generated by PARSER (from files_GN.cpp)

@<TRIPOS>ATOM
      1 C1         27.9834   48.1825   -3.7634 C.3         1 MNM       0.1497
      2 C2         26.7405   48.6647   -2.9643 C.3         1 MNM       0.1091
      3 C3         28.7375   47.0436   -3.0189 C.3         1 MNM       0.0986
      4 O4         28.8529   49.2685   -4.0680 O.3         1 MNM      -0.3811
      5 O5         26.1451   49.8060   -3.5775 O.3         1 MNM      -0.3504
      6 N6         27.0639   48.9840   -1.5522 N.4         1 MNM       0.2513
      7 O7         27.9801   45.8421   -3.1540 O.3         1 MNM      -0.3884
      8 C8         28.9928   47.3415   -1.5046 C.3         1 MNM       0.0509
      9 C9         30.1897   48.2986   -1.2621 C.3         1 MNM       0.0543
     10 C10        27.6918   47.8625   -0.8158 C.3         1 MNM      -0.0236
     11 O11        30.6958   48.1543    0.0582 O.3         1 MNM      -0.3945
     12 H1         27.6381   47.8033   -4.7298 H           1 MNM       0.0704
     13 H2         25.9855   47.8741   -2.9713 H           1 MNM       0.1211
     14 H3         29.6830   46.8612   -3.5317 H           1 MNM       0.0627
     15 H4         29.0965   49.6843   -3.2234 H           1 MNM       0.2103
     16 H5         26.7851   50.5409   -3.4420 H           1 MNM       0.2155
     17 H6         26.1913   49.2229   -1.0701 H           1 MNM       0.2042
     18 H7         27.6740   49.8082   -1.5121 H           1 MNM       0.2042
     19 H8         28.6002   45.1025   -2.9509 H           1 MNM       0.2099
     20 H9         29.2576   46.3876   -1.0380 H           1 MNM       0.0401
     21 H10        29.8980   49.3409   -1.3892 H           1 MNM       0.0562
     22 H11        31.0100   48.0877   -1.9509 H           1 MNM       0.0562
     23 H12        26.9716   47.0433   -0.7349 H           1 MNM       0.0819
     24 H13        27.9122   48.1933    0.2010 H           1 MNM       0.0819
     25 H14        31.0560   47.2419    0.1016 H           1 MNM       0.2094
@<TRIPOS>BOND
     1     1     2   1
     2     1     3   1
     3     1     4   1
     4     2     5   1
     5     2     6   1
     6     3     7   1
     7     3     8   1
     8     6    10   1
     9     8     9   1
    10     8    10   1
    11     9    11   1
    12     1    12   1
    13     2    13   1
    14     3    14   1
    15     4    15   1
    16     5    16   1
    17     6    17   1
    18     6    18   1
    19     7    19   1
    20     8    20   1
    21     9    21   1
    22     9    22   1
    23    10    23   1
    24    10    24   1
    25    11    25   1
@<TRIPOS>SUBSTRUCTURE
     1  MNM      1

