@<TRIPOS>MOLECULE
2vl4_ligand_009
    25    25
SMALL
GAST_HUCK
****
This file was generated by PARSER (from files_GN.cpp)

@<TRIPOS>ATOM
      1 C1         28.0133   48.8167   -1.0740 C.3         1 MNM       0.1497
      2 C2         29.2130   47.8863   -1.4255 C.3         1 MNM       0.1091
      3 C3         27.0080   48.1525   -0.0967 C.3         1 MNM       0.0986
      4 O4         27.3164   49.2431   -2.2485 O.3         1 MNM      -0.3811
      5 O5         29.9422   48.4104   -2.5398 O.3         1 MNM      -0.3504
      6 N6         28.7868   46.5116   -1.7868 N.4         1 MNM       0.2513
      7 O7         27.5245   48.1789    1.2363 O.3         1 MNM      -0.3884
      8 C8         26.6301   46.6909   -0.5078 C.3         1 MNM       0.0509
      9 C9         25.5638   46.6071   -1.6532 C.3         1 MNM       0.0543
     10 C10        27.9068   45.8563   -0.7953 C.3         1 MNM      -0.0236
     11 O11        26.0983   46.4718   -2.9731 O.3         1 MNM      -0.3945
     12 H1         28.4081   49.7114   -0.5842 H           1 MNM       0.0704
     13 H2         29.8886   47.8359   -0.5688 H           1 MNM       0.1211
     14 H3         26.1075   48.7786   -0.0611 H           1 MNM       0.0627
     15 H4         27.7385   50.1018   -2.4916 H           1 MNM       0.2103
     16 H5         29.7816   49.3801   -2.5393 H           1 MNM       0.2155
     17 H6         29.6156   45.9368   -1.9188 H           1 MNM       0.2042
     18 H7         28.2937   46.5618   -2.6762 H           1 MNM       0.2042
     19 H8         28.1121   47.3956    1.3152 H           1 MNM       0.2099
     20 H9         26.1461   46.2493    0.3708 H           1 MNM       0.0401
     21 H10        24.9023   47.4759   -1.6544 H           1 MNM       0.0562
     22 H11        24.9450   45.7264   -1.4777 H           1 MNM       0.0562
     23 H12        28.4706   45.6938    0.1237 H           1 MNM       0.0819
     24 H13        27.6274   44.8698   -1.1696 H           1 MNM       0.0819
     25 H14        26.2640   47.3916   -3.2913 H           1 MNM       0.2094
@<TRIPOS>BOND
     1     1     2   1
     2     1     3   1
     3     1     4   1
     4     2     5   1
     5     2     6   1
     6     3     7   1
     7     3     8   1
     8     6    10   1
     9     8     9   1
    10     8    10   1
    11     9    11   1
    12     1    12   1
    13     2    13   1
    14     3    14   1
    15     4    15   1
    16     5    16   1
    17     6    17   1
    18     6    18   1
    19     7    19   1
    20     8    20   1
    21     9    21   1
    22     9    22   1
    23    10    23   1
    24    10    24   1
    25    11    25   1
@<TRIPOS>SUBSTRUCTURE
     1  MNM      1

