@<TRIPOS>MOLECULE
2vl4_ligand_020
    25    25
SMALL
GAST_HUCK
****
This file was generated by PARSER (from files_GN.cpp)

@<TRIPOS>ATOM
      1 C1         26.7744   49.5249   -2.2043 C.3         1 MNM       0.1497
      2 C2         25.9914   48.8765   -3.3814 C.3         1 MNM       0.1091
      3 C3         26.9360   48.5412   -1.0027 C.3         1 MNM       0.0986
      4 O4         26.1124   50.7217   -1.7845 O.3         1 MNM      -0.3811
      5 O5         24.6176   48.6473   -3.0616 O.3         1 MNM      -0.3504
      6 N6         26.6560   47.6239   -3.7861 N.4         1 MNM       0.2513
      7 O7         27.8240   49.1005   -0.0216 O.3         1 MNM      -0.3884
      8 C8         27.5048   47.1472   -1.4657 C.3         1 MNM       0.0509
      9 C9         27.5178   46.0957   -0.3134 C.3         1 MNM       0.0543
     10 C10        26.7356   46.6087   -2.7119 C.3         1 MNM      -0.0236
     11 O11        28.7760   45.4001   -0.2656 O.3         1 MNM      -0.3945
     12 H1         27.7725   49.7980   -2.5584 H           1 MNM       0.0704
     13 H2         26.0262   49.5554   -4.2303 H           1 MNM       0.1211
     14 H3         25.9592   48.3673   -0.5287 H           1 MNM       0.0627
     15 H4         25.3138   50.4124   -1.3174 H           1 MNM       0.2103
     16 H5         24.1858   49.5395   -3.1153 H           1 MNM       0.2155
     17 H6         27.6079   47.8407   -4.0963 H           1 MNM       0.2042
     18 H7         26.1411   47.2309   -4.5751 H           1 MNM       0.2042
     19 H8         27.5921   50.0457    0.0275 H           1 MNM       0.2099
     20 H9         28.5421   47.3148   -1.7770 H           1 MNM       0.0401
     21 H10        26.7044   45.3555   -0.4654 H           1 MNM       0.0562
     22 H11        27.3583   46.5877    0.6622 H           1 MNM       0.0562
     23 H12        27.2538   45.7309   -3.1196 H           1 MNM       0.0819
     24 H13        25.7196   46.2968   -2.4196 H           1 MNM       0.0819
     25 H14        29.4459   46.1100   -0.2185 H           1 MNM       0.2094
@<TRIPOS>BOND
     1     1     2   1
     2     1     3   1
     3     1     4   1
     4     2     5   1
     5     2     6   1
     6     3     7   1
     7     3     8   1
     8     6    10   1
     9     8     9   1
    10     8    10   1
    11     9    11   1
    12     1    12   1
    13     2    13   1
    14     3    14   1
    15     4    15   1
    16     5    16   1
    17     6    17   1
    18     6    18   1
    19     7    19   1
    20     8    20   1
    21     9    21   1
    22     9    22   1
    23    10    23   1
    24    10    24   1
    25    11    25   1
@<TRIPOS>SUBSTRUCTURE
     1  MNM      1

