@<TRIPOS>MOLECULE
2vl4_ligand_021
    25    25
SMALL
GAST_HUCK
****
This file was generated by PARSER (from files_GN.cpp)

@<TRIPOS>ATOM
      1 C1         29.5221   47.1141   -0.9540 C.3         1 MNM       0.1497
      2 C2         30.6206   47.3286   -2.0307 C.3         1 MNM       0.1091
      3 C3         28.2262   47.8934   -1.3087 C.3         1 MNM       0.0986
      4 O4         29.9896   47.5155    0.3302 O.3         1 MNM      -0.3811
      5 O5         31.1365   48.6642   -2.0162 O.3         1 MNM      -0.3504
      6 N6         30.0978   46.9612   -3.3661 N.4         1 MNM       0.2513
      7 O7         27.2193   47.6029   -0.3363 O.3         1 MNM      -0.3884
      8 C8         27.7305   47.5447   -2.7488 C.3         1 MNM       0.0509
      9 C9         26.4720   48.3605   -3.1669 C.3         1 MNM       0.0543
     10 C10        28.8842   47.7009   -3.7811 C.3         1 MNM      -0.0236
     11 O11        26.7617   49.7099   -3.5277 O.3         1 MNM      -0.3945
     12 H1         29.2912   46.0481   -0.9030 H           1 MNM       0.0704
     13 H2         31.4584   46.6634   -1.8208 H           1 MNM       0.1211
     14 H3         28.4368   48.9644   -1.2494 H           1 MNM       0.0627
     15 H4         30.6765   46.8628    0.5747 H           1 MNM       0.2103
     16 H5         31.1182   48.9566   -2.9509 H           1 MNM       0.2155
     17 H6         29.9012   45.9586   -3.3271 H           1 MNM       0.2042
     18 H7         30.8337   47.1158   -4.0599 H           1 MNM       0.2042
     19 H8         26.9962   46.6576   -0.4567 H           1 MNM       0.2099
     20 H9         27.4364   46.4878   -2.7446 H           1 MNM       0.0401
     21 H10        25.7377   48.3729   -2.3559 H           1 MNM       0.0562
     22 H11        25.9957   47.8824   -4.0275 H           1 MNM       0.0562
     23 H12        28.5676   47.3181   -4.7529 H           1 MNM       0.0819
     24 H13        29.1446   48.7524   -3.9052 H           1 MNM       0.0819
     25 H14        27.4862   50.0090   -2.9420 H           1 MNM       0.2094
@<TRIPOS>BOND
     1     1     2   1
     2     1     3   1
     3     1     4   1
     4     2     5   1
     5     2     6   1
     6     3     7   1
     7     3     8   1
     8     6    10   1
     9     8     9   1
    10     8    10   1
    11     9    11   1
    12     1    12   1
    13     2    13   1
    14     3    14   1
    15     4    15   1
    16     5    16   1
    17     6    17   1
    18     6    18   1
    19     7    19   1
    20     8    20   1
    21     9    21   1
    22     9    22   1
    23    10    23   1
    24    10    24   1
    25    11    25   1
@<TRIPOS>SUBSTRUCTURE
     1  MNM      1

