@<TRIPOS>MOLECULE
2vl4_ligand_006
    25    25
SMALL
GAST_HUCK
****
This file was generated by PARSER (from files_GN.cpp)

@<TRIPOS>ATOM
      1 C1         27.9122   46.2348   -1.4711 C.3         1 MNM       0.1497
      2 C2         28.9103   47.4308   -1.4625 C.3         1 MNM       0.1091
      3 C3         27.0263   46.2537   -2.7582 C.3         1 MNM       0.0986
      4 O4         27.0949   46.2344   -0.2976 O.3         1 MNM      -0.3811
      5 O5         29.5588   47.5609   -0.2004 O.3         1 MNM      -0.3504
      6 N6         28.2307   48.7148   -1.7493 N.4         1 MNM       0.2513
      7 O7         27.8200   45.8243   -3.8696 O.3         1 MNM      -0.3884
      8 C8         26.3954   47.6526   -3.0751 C.3         1 MNM       0.0509
      9 C9         25.1902   48.0115   -2.1496 C.3         1 MNM       0.0543
     10 C10        27.5027   48.7449   -3.0360 C.3         1 MNM      -0.0236
     11 O11        24.3287   48.9906   -2.7258 O.3         1 MNM      -0.3945
     12 H1         28.4846   45.3026   -1.4503 H           1 MNM       0.0704
     13 H2         29.6848   47.2656   -2.2127 H           1 MNM       0.1211
     14 H3         26.2265   45.5189   -2.6585 H           1 MNM       0.0627
     15 H4         26.7205   45.3227   -0.2528 H           1 MNM       0.2103
     16 H5         30.3083   46.9216   -0.2322 H           1 MNM       0.2155
     17 H6         28.9169   49.4706   -1.7596 H           1 MNM       0.2042
     18 H7         27.5659   48.9070   -0.9958 H           1 MNM       0.2042
     19 H8         28.0831   44.8965   -3.6659 H           1 MNM       0.2099
     20 H9         26.0018   47.6166   -4.0991 H           1 MNM       0.0401
     21 H10        25.5274   48.3908   -1.1844 H           1 MNM       0.0562
     22 H11        24.5897   47.1158   -1.9767 H           1 MNM       0.0562
     23 H12        28.2089   48.5930   -3.8580 H           1 MNM       0.0819
     24 H13        27.0616   49.7351   -3.1682 H           1 MNM       0.0819
     25 H14        24.7948   49.8491   -2.6348 H           1 MNM       0.2094
@<TRIPOS>BOND
     1     1     2   1
     2     1     3   1
     3     1     4   1
     4     2     5   1
     5     2     6   1
     6     3     7   1
     7     3     8   1
     8     6    10   1
     9     8     9   1
    10     8    10   1
    11     9    11   1
    12     1    12   1
    13     2    13   1
    14     3    14   1
    15     4    15   1
    16     5    16   1
    17     6    17   1
    18     6    18   1
    19     7    19   1
    20     8    20   1
    21     9    21   1
    22     9    22   1
    23    10    23   1
    24    10    24   1
    25    11    25   1
@<TRIPOS>SUBSTRUCTURE
     1  MNM      1

