@<TRIPOS>MOLECULE
2vo5_ligand_049
    42    44
SMALL
GAST_HUCK
****
This file was generated by PARSER (from files_GN.cpp)

@<TRIPOS>ATOM
      1 O2         32.4914   52.6912   -7.8265 O.3         1 VBZ      -0.3835
      2 C2         33.3326   52.9087   -6.6952 C.3         1 VBZ       0.1262
      3 C3         32.7047   53.9147   -5.6632 C.3         1 VBZ       0.1202
      4 O3         31.3996   54.3477   -6.0572 O.3         1 VBZ      -0.3859
      5 C4         32.6593   53.2659   -4.2338 C.3         1 VBZ       0.1387
      6 O4         32.0690   54.1804   -3.3090 O.3         1 VBZ      -0.3803
      7 C5         34.1385   52.8750   -3.8290 C.3         1 VBZ       0.0237
      8 C6         34.3303   52.4161   -2.3525 C.3         1 VBZ       0.0501
      9 O6         34.1790   53.5014   -1.4407 O.3         1 VBZ      -0.3946
     10 C7         34.7080   51.8288   -4.8593 C.3         1 VBZ       0.0007
     11 C8         31.8056   51.9590   -4.3691 C.3         1 VBZ       0.0023
     12 N1         32.3954   51.0047   -5.3913 N.4         1 VBZ       0.2533
     13 C1         33.6691   51.5489   -5.9942 C.3         1 VBZ       0.0102
     14 C9         32.4834   49.5823   -4.9234 C.3         1 VBZ       0.0024
     15 C10        31.1465   48.9291   -4.9113 C.ar        1 VBZ       0.0014
     16 C11        30.3722   48.8569   -3.7286 C.ar        1 VBZ      -0.0553
     17 C12        29.0959   48.2608   -3.7479 C.ar        1 VBZ      -0.0684
     18 C15        30.6181   48.3924   -6.1054 C.ar        1 VBZ      -0.0553
     19 C14        29.3474   47.7839   -6.1215 C.ar        1 VBZ      -0.0684
     20 C13        28.5880   47.7194   -4.9414 C.ar        1 VBZ      -0.0687
     21 H1         31.6346   52.3762   -7.4682 H           1 VBZ       0.2102
     22 H2         34.2597   53.3363   -7.0894 H           1 VBZ       0.0677
     23 H3         33.3179   54.8196   -5.6233 H           1 VBZ       0.0652
     24 H4         31.5172   54.7715   -6.9344 H           1 VBZ       0.2100
     25 H5         32.0113   53.6977   -2.4576 H           1 VBZ       0.2105
     26 H6         34.7474   53.7771   -3.9240 H           1 VBZ       0.0355
     27 H7         33.6148   51.6332   -2.0977 H           1 VBZ       0.0561
     28 H8         35.3275   52.0098   -2.2077 H           1 VBZ       0.0561
     29 H9         34.9390   54.0994   -1.6294 H           1 VBZ       0.2094
     30 H10        34.9706   50.8827   -4.3745 H           1 VBZ       0.0325
     31 H11        35.6308   52.2131   -5.3067 H           1 VBZ       0.0325
     32 H12        30.7917   52.2126   -4.6947 H           1 VBZ       0.0844
     33 H13        31.7007   51.5097   -3.3794 H           1 VBZ       0.0844
     34 H14        31.7282   50.9835   -6.1647 H           1 VBZ       0.2053
     35 H15        34.0854   50.8571   -6.7341 H           1 VBZ       0.0878
     36 H16        32.9423   49.5359   -3.9299 H           1 VBZ       0.0980
     37 H17        33.1336   49.0060   -5.5844 H           1 VBZ       0.0980
     38 H18        30.7237   49.2468   -2.8535 H           1 VBZ       0.0558
     39 H19        28.5345   48.2271   -2.8944 H           1 VBZ       0.0599
     40 H20        31.1558   48.4314   -6.9760 H           1 VBZ       0.0558
     41 H21        28.9787   47.3940   -6.9928 H           1 VBZ       0.0599
     42 H22        27.6619   47.2815   -4.9534 H           1 VBZ       0.0559
@<TRIPOS>BOND
     1     1     2   1
     2     2     3   1
     3     2    13   1
     4     3     4   1
     5     3     5   1
     6     5     6   1
     7     5     7   1
     8     5    11   1
     9     7     8   1
    10     7    10   1
    11     8     9   1
    12    10    13   1
    13    11    12   1
    14    12    13   1
    15    12    14   1
    16    14    15   1
    17    15    16  ar
    18    15    18  ar
    19    16    17  ar
    20    17    20  ar
    21    18    19  ar
    22    19    20  ar
    23     1    21   1
    24     2    22   1
    25     3    23   1
    26     4    24   1
    27     6    25   1
    28     7    26   1
    29     8    27   1
    30     8    28   1
    31     9    29   1
    32    10    30   1
    33    10    31   1
    34    11    32   1
    35    11    33   1
    36    12    34   1
    37    13    35   1
    38    14    36   1
    39    14    37   1
    40    16    38   1
    41    17    39   1
    42    18    40   1
    43    19    41   1
    44    20    42   1
@<TRIPOS>SUBSTRUCTURE
     1  VBZ      2

