@<TRIPOS>MOLECULE
2vo5_ligand_041
    42    44
SMALL
GAST_HUCK
****
This file was generated by PARSER (from files_GN.cpp)

@<TRIPOS>ATOM
      1 O2         35.6297   47.0736   -2.7337 O.3         1 VBZ      -0.3835
      2 C2         34.7165   48.1644   -2.6486 C.3         1 VBZ       0.1262
      3 C3         35.4164   49.5513   -2.9228 C.3         1 VBZ       0.1202
      4 O3         36.8223   49.4058   -3.1390 O.3         1 VBZ      -0.3859
      5 C4         34.7020   50.3196   -4.1008 C.3         1 VBZ       0.1387
      6 O4         35.3679   51.5666   -4.3518 O.3         1 VBZ      -0.3803
      7 C5         33.1873   50.5190   -3.6887 C.3         1 VBZ       0.0237
      8 C6         32.3882   51.4718   -4.6436 C.3         1 VBZ       0.0501
      9 O6         31.0233   51.0991   -4.8160 O.3         1 VBZ      -0.3946
     10 C7         32.5165   49.1129   -3.4764 C.3         1 VBZ       0.0007
     11 C8         34.7415   49.3807   -5.3626 C.3         1 VBZ       0.0023
     12 N1         34.1946   48.0109   -5.0377 N.4         1 VBZ       0.2533
     13 C1         33.5526   47.9492   -3.6706 C.3         1 VBZ       0.0102
     14 C9         33.5030   47.2909   -6.1577 C.3         1 VBZ       0.0024
     15 C10        32.0211   47.2078   -6.1123 C.ar        1 VBZ       0.0014
     16 C11        31.2097   47.9901   -6.9685 C.ar        1 VBZ      -0.0553
     17 C12        29.8032   47.9076   -6.8928 C.ar        1 VBZ      -0.0684
     18 C15        31.3898   46.3447   -5.1839 C.ar        1 VBZ      -0.0553
     19 C14        29.9826   46.2664   -5.1070 C.ar        1 VBZ      -0.0684
     20 C13        29.1887   47.0539   -5.9516 C.ar        1 VBZ      -0.0687
     21 H1         35.9473   46.9260   -1.8130 H           1 VBZ       0.2102
     22 H2         34.3084   48.1338   -1.6363 H           1 VBZ       0.0677
     23 H3         35.3268   50.1578   -2.0150 H           1 VBZ       0.0652
     24 H4         36.9106   48.7816   -3.8893 H           1 VBZ       0.2100
     25 H5         35.1848   51.7524   -5.2955 H           1 VBZ       0.2105
     26 H6         33.1862   51.0348   -2.7225 H           1 VBZ       0.0355
     27 H7         32.4184   52.4952   -4.2451 H           1 VBZ       0.0561
     28 H8         32.8337   51.4920   -5.6441 H           1 VBZ       0.0561
     29 H9         30.5477   51.4058   -4.0153 H           1 VBZ       0.2094
     30 H10        31.6821   48.9774   -4.1589 H           1 VBZ       0.0325
     31 H11        32.0974   49.0558   -2.4732 H           1 VBZ       0.0325
     32 H12        35.7828   49.2548   -5.6814 H           1 VBZ       0.0844
     33 H13        34.2119   49.8421   -6.2022 H           1 VBZ       0.0844
     34 H14        35.0460   47.4573   -4.9242 H           1 VBZ       0.2053
     35 H15        33.0766   46.9742   -3.4905 H           1 VBZ       0.0878
     36 H16        33.8976   46.2792   -6.1598 H           1 VBZ       0.0980
     37 H17        33.8124   47.7027   -7.1294 H           1 VBZ       0.0980
     38 H18        31.6377   48.6331   -7.6492 H           1 VBZ       0.0558
     39 H19        29.2279   48.4700   -7.5234 H           1 VBZ       0.0599
     40 H20        31.9449   45.7967   -4.5215 H           1 VBZ       0.0558
     41 H21        29.5413   45.6378   -4.4233 H           1 VBZ       0.0599
     42 H22        28.1671   47.0028   -5.8976 H           1 VBZ       0.0559
@<TRIPOS>BOND
     1     1     2   1
     2     2     3   1
     3     2    13   1
     4     3     4   1
     5     3     5   1
     6     5     6   1
     7     5     7   1
     8     5    11   1
     9     7     8   1
    10     7    10   1
    11     8     9   1
    12    10    13   1
    13    11    12   1
    14    12    13   1
    15    12    14   1
    16    14    15   1
    17    15    16  ar
    18    15    18  ar
    19    16    17  ar
    20    17    20  ar
    21    18    19  ar
    22    19    20  ar
    23     1    21   1
    24     2    22   1
    25     3    23   1
    26     4    24   1
    27     6    25   1
    28     7    26   1
    29     8    27   1
    30     8    28   1
    31     9    29   1
    32    10    30   1
    33    10    31   1
    34    11    32   1
    35    11    33   1
    36    12    34   1
    37    13    35   1
    38    14    36   1
    39    14    37   1
    40    16    38   1
    41    17    39   1
    42    18    40   1
    43    19    41   1
    44    20    42   1
@<TRIPOS>SUBSTRUCTURE
     1  VBZ      2

