@<TRIPOS>MOLECULE
2vo5_ligand_011
    42    44
SMALL
GAST_HUCK
****
This file was generated by PARSER (from files_GN.cpp)

@<TRIPOS>ATOM
      1 O2         26.3110   49.4062   -3.9903 O.3         1 VBZ      -0.3835
      2 C2         26.9949   49.2106   -2.7452 C.3         1 VBZ       0.1262
      3 C3         26.1367   48.3723   -1.7163 C.3         1 VBZ       0.1202
      4 O3         24.8770   47.9745   -2.2679 O.3         1 VBZ      -0.3859
      5 C4         26.9426   47.1232   -1.2230 C.3         1 VBZ       0.1387
      6 O4         26.1354   46.3805   -0.3019 O.3         1 VBZ      -0.3803
      7 C5         28.2848   47.6454   -0.5678 C.3         1 VBZ       0.0237
      8 C6         29.1253   46.5580    0.1591 C.3         1 VBZ       0.0501
      9 O6         29.9956   47.1898    1.0979 O.3         1 VBZ      -0.3946
     10 C7         29.1325   48.4249   -1.6547 C.3         1 VBZ       0.0007
     11 C8         27.3298   46.2778   -2.4867 C.3         1 VBZ       0.0023
     12 N1         28.0339   47.1161   -3.5349 N.4         1 VBZ       0.2533
     13 C1         28.3646   48.4978   -3.0202 C.3         1 VBZ       0.0102
     14 C9         29.1456   46.3931   -4.2488 C.3         1 VBZ       0.0024
     15 C10        29.3225   46.8127   -5.6707 C.ar        1 VBZ       0.0014
     16 C11        30.0389   47.9903   -6.0016 C.ar        1 VBZ      -0.0553
     17 C12        30.2051   48.3792   -7.3434 C.ar        1 VBZ      -0.0684
     18 C15        28.8020   46.0208   -6.7280 C.ar        1 VBZ      -0.0553
     19 C14        29.0000   46.3920   -8.0696 C.ar        1 VBZ      -0.0684
     20 C13        29.6896   47.5792   -8.3807 C.ar        1 VBZ      -0.0687
     21 H1         25.5614   50.0223   -3.7782 H           1 VBZ       0.2102
     22 H2         27.2056   50.2125   -2.3404 H           1 VBZ       0.0677
     23 H3         25.9169   49.0161   -0.8637 H           1 VBZ       0.0652
     24 H4         24.4621   48.8168   -2.5780 H           1 VBZ       0.2100
     25 H5         26.0843   45.4795   -0.6875 H           1 VBZ       0.2105
     26 H6         27.9828   48.3644    0.2054 H           1 VBZ       0.0355
     27 H7         28.4568   45.8921    0.7024 H           1 VBZ       0.0561
     28 H8         29.7166   45.9806   -0.5594 H           1 VBZ       0.0561
     29 H9         30.4819   46.4559    1.5123 H           1 VBZ       0.2094
     30 H10        30.1052   47.9607   -1.8112 H           1 VBZ       0.0325
     31 H11        29.3268   49.4424   -1.2912 H           1 VBZ       0.0325
     32 H12        26.4275   45.8702   -2.9440 H           1 VBZ       0.0844
     33 H13        27.9411   45.4211   -2.1691 H           1 VBZ       0.0844
     34 H14        27.3361   47.2629   -4.2636 H           1 VBZ       0.2053
     35 H15        28.9468   49.0809   -3.7337 H           1 VBZ       0.0878
     36 H16        28.9338   45.3107   -4.2549 H           1 VBZ       0.0980
     37 H17        30.0982   46.4924   -3.7114 H           1 VBZ       0.0980
     38 H18        30.4595   48.5704   -5.2695 H           1 VBZ       0.0558
     39 H19        30.7112   49.2407   -7.5653 H           1 VBZ       0.0599
     40 H20        28.2973   45.1501   -6.5254 H           1 VBZ       0.0558
     41 H21        28.6295   45.8062   -8.8247 H           1 VBZ       0.0599
     42 H22        29.8218   47.8588   -9.3619 H           1 VBZ       0.0559
@<TRIPOS>BOND
     1     1     2   1
     2     2     3   1
     3     2    13   1
     4     3     4   1
     5     3     5   1
     6     5     6   1
     7     5     7   1
     8     5    11   1
     9     7     8   1
    10     7    10   1
    11     8     9   1
    12    10    13   1
    13    11    12   1
    14    12    13   1
    15    12    14   1
    16    14    15   1
    17    15    16  ar
    18    15    18  ar
    19    16    17  ar
    20    17    20  ar
    21    18    19  ar
    22    19    20  ar
    23     1    21   1
    24     2    22   1
    25     3    23   1
    26     4    24   1
    27     6    25   1
    28     7    26   1
    29     8    27   1
    30     8    28   1
    31     9    29   1
    32    10    30   1
    33    10    31   1
    34    11    32   1
    35    11    33   1
    36    12    34   1
    37    13    35   1
    38    14    36   1
    39    14    37   1
    40    16    38   1
    41    17    39   1
    42    18    40   1
    43    19    41   1
    44    20    42   1
@<TRIPOS>SUBSTRUCTURE
     1  VBZ      2

