@<TRIPOS>MOLECULE
2vo5_ligand_051
    42    44
SMALL
GAST_HUCK
****
This file was generated by PARSER (from files_GN.cpp)

@<TRIPOS>ATOM
      1 O2         30.1188   49.9333   -0.9607 O.3         1 VBZ      -0.3835
      2 C2         29.9142   48.5243   -0.8488 C.3         1 VBZ       0.1262
      3 C3         28.8382   48.1731    0.2508 C.3         1 VBZ       0.1202
      4 O3         28.1854   49.3298    0.7749 O.3         1 VBZ      -0.3859
      5 C4         27.8011   47.1440   -0.3099 C.3         1 VBZ       0.1387
      6 O4         26.8725   46.8015    0.7231 O.3         1 VBZ      -0.3803
      7 C5         28.6262   45.9037   -0.8350 C.3         1 VBZ       0.0237
      8 C6         27.7918   44.6062   -1.0942 C.3         1 VBZ       0.0501
      9 O6         27.5162   44.3397   -2.4825 O.3         1 VBZ      -0.3946
     10 C7         29.5292   46.3395   -2.0569 C.3         1 VBZ       0.0007
     11 C8         27.0872   47.8013   -1.5248 C.3         1 VBZ       0.0023
     12 N1         28.0907   48.3566   -2.5171 N.4         1 VBZ       0.2533
     13 C1         29.5010   47.8888   -2.2189 C.3         1 VBZ       0.0102
     14 C9         27.5820   48.3618   -3.9368 C.3         1 VBZ       0.0024
     15 C10        28.4155   47.8024   -5.0374 C.ar        1 VBZ       0.0014
     16 C11        28.0502   46.5968   -5.6874 C.ar        1 VBZ      -0.0553
     17 C12        28.8151   46.0860   -6.7565 C.ar        1 VBZ      -0.0684
     18 C15        29.5702   48.4834   -5.4946 C.ar        1 VBZ      -0.0553
     19 C14        30.3378   47.9805   -6.5607 C.ar        1 VBZ      -0.0684
     20 C13        29.9641   46.7784   -7.1885 C.ar        1 VBZ      -0.0687
     21 H1         30.4779   50.0680   -1.8620 H           1 VBZ       0.2102
     22 H2         30.8852   48.1106   -0.5479 H           1 VBZ       0.0677
     23 H3         29.3432   47.7102    1.1055 H           1 VBZ       0.0652
     24 H4         28.3218   50.0544    0.1255 H           1 VBZ       0.2100
     25 H5         27.4141   46.3874    1.4272 H           1 VBZ       0.2105
     26 H6         29.3036   45.6327   -0.0161 H           1 VBZ       0.0355
     27 H7         28.3294   43.7374   -0.6729 H           1 VBZ       0.0561
     28 H8         26.8334   44.6674   -0.5616 H           1 VBZ       0.0561
     29 H9         27.4863   43.3600   -2.5349 H           1 VBZ       0.2094
     30 H10        29.1944   45.8939   -2.9923 H           1 VBZ       0.0325
     31 H11        30.5545   46.0125   -1.8912 H           1 VBZ       0.0325
     32 H12        26.4467   48.6220   -1.1912 H           1 VBZ       0.0844
     33 H13        26.4404   47.0430   -1.9708 H           1 VBZ       0.0844
     34 H14        28.1486   49.3626   -2.3057 H           1 VBZ       0.2053
     35 H15        30.2070   48.2077   -2.9855 H           1 VBZ       0.0878
     36 H16        27.3892   49.4054   -4.1856 H           1 VBZ       0.0980
     37 H17        26.5861   47.9067   -4.0243 H           1 VBZ       0.0980
     38 H18        27.2331   46.0740   -5.3775 H           1 VBZ       0.0558
     39 H19        28.5434   45.2105   -7.2114 H           1 VBZ       0.0599
     40 H20        29.8629   49.3608   -5.0569 H           1 VBZ       0.0558
     41 H21        31.1837   48.4735   -6.8706 H           1 VBZ       0.0599
     42 H22        30.5271   46.4010   -7.9612 H           1 VBZ       0.0559
@<TRIPOS>BOND
     1     1     2   1
     2     2     3   1
     3     2    13   1
     4     3     4   1
     5     3     5   1
     6     5     6   1
     7     5     7   1
     8     5    11   1
     9     7     8   1
    10     7    10   1
    11     8     9   1
    12    10    13   1
    13    11    12   1
    14    12    13   1
    15    12    14   1
    16    14    15   1
    17    15    16  ar
    18    15    18  ar
    19    16    17  ar
    20    17    20  ar
    21    18    19  ar
    22    19    20  ar
    23     1    21   1
    24     2    22   1
    25     3    23   1
    26     4    24   1
    27     6    25   1
    28     7    26   1
    29     8    27   1
    30     8    28   1
    31     9    29   1
    32    10    30   1
    33    10    31   1
    34    11    32   1
    35    11    33   1
    36    12    34   1
    37    13    35   1
    38    14    36   1
    39    14    37   1
    40    16    38   1
    41    17    39   1
    42    18    40   1
    43    19    41   1
    44    20    42   1
@<TRIPOS>SUBSTRUCTURE
     1  VBZ      2

