@<TRIPOS>MOLECULE
2vo5_ligand_009
    42    44
SMALL
GAST_HUCK
****
This file was generated by PARSER (from files_GN.cpp)

@<TRIPOS>ATOM
      1 O2         26.4292   45.7114   -2.6939 O.3         1 VBZ      -0.3835
      2 C2         26.8885   47.0287   -2.3756 C.3         1 VBZ       0.1262
      3 C3         27.3140   47.1698   -0.8693 C.3         1 VBZ       0.1202
      4 O3         26.9704   46.0169   -0.0983 O.3         1 VBZ      -0.3859
      5 C4         28.8530   47.4632   -0.7636 C.3         1 VBZ       0.1387
      6 O4         29.2596   47.5102    0.6076 O.3         1 VBZ      -0.3803
      7 C5         29.1528   48.8488   -1.4525 C.3         1 VBZ       0.0237
      8 C6         30.6196   49.3640   -1.1918 C.3         1 VBZ       0.0501
      9 O6         31.3944   49.6468   -2.3495 O.3         1 VBZ      -0.3946
     10 C7         28.6598   48.7836   -2.9516 C.3         1 VBZ       0.0007
     11 C8         29.5956   46.3494   -1.5878 C.3         1 VBZ       0.0023
     12 N1         29.1601   46.3149   -3.0405 N.4         1 VBZ       0.2533
     13 C1         28.1017   47.3626   -3.3077 C.3         1 VBZ       0.0102
     14 C9         30.3074   46.2684   -4.0111 C.3         1 VBZ       0.0024
     15 C10        29.8963   46.2027   -5.4397 C.ar        1 VBZ       0.0014
     16 C11        30.0003   47.3411   -6.2748 C.ar        1 VBZ      -0.0553
     17 C12        29.4891   47.3183   -7.5850 C.ar        1 VBZ      -0.0684
     18 C15        29.3117   45.0257   -5.9638 C.ar        1 VBZ      -0.0553
     19 C14        28.8232   44.9962   -7.2836 C.ar        1 VBZ      -0.0684
     20 C13        28.8951   46.1477   -8.0878 C.ar        1 VBZ      -0.0687
     21 H1         25.6509   45.5454   -2.1219 H           1 VBZ       0.2102
     22 H2         26.0585   47.7100   -2.5863 H           1 VBZ       0.0677
     23 H3         26.7703   48.0051   -0.4184 H           1 VBZ       0.0652
     24 H4         25.9909   45.9735   -0.1172 H           1 VBZ       0.2100
     25 H5         28.9205   46.6903    1.0190 H           1 VBZ       0.2105
     26 H6         28.5063   49.5833   -0.9572 H           1 VBZ       0.0355
     27 H7         30.5901   50.2817   -0.5967 H           1 VBZ       0.0561
     28 H8         31.1969   48.6445   -0.6111 H           1 VBZ       0.0561
     29 H9         30.9156   50.3909   -2.7706 H           1 VBZ       0.2094
     30 H10        29.4515   49.0363   -3.6547 H           1 VBZ       0.0325
     31 H11        27.8640   49.5180   -3.1057 H           1 VBZ       0.0325
     32 H12        29.3734   45.3743   -1.1500 H           1 VBZ       0.0844
     33 H13        30.6712   46.4978   -1.4913 H           1 VBZ       0.0844
     34 H14        28.7014   45.4064   -3.1574 H           1 VBZ       0.2053
     35 H15        27.7577   47.3418   -4.3458 H           1 VBZ       0.0878
     36 H16        30.9069   45.3784   -3.8050 H           1 VBZ       0.0980
     37 H17        30.9657   47.1242   -3.8495 H           1 VBZ       0.0980
     38 H18        30.4146   48.2084   -5.9225 H           1 VBZ       0.0558
     39 H19        29.5343   48.1600   -8.1626 H           1 VBZ       0.0599
     40 H20        29.2256   44.1883   -5.3818 H           1 VBZ       0.0558
     41 H21        28.3939   44.1433   -7.6497 H           1 VBZ       0.0599
     42 H22        28.5088   46.1366   -9.0331 H           1 VBZ       0.0559
@<TRIPOS>BOND
     1     1     2   1
     2     2     3   1
     3     2    13   1
     4     3     4   1
     5     3     5   1
     6     5     6   1
     7     5     7   1
     8     5    11   1
     9     7     8   1
    10     7    10   1
    11     8     9   1
    12    10    13   1
    13    11    12   1
    14    12    13   1
    15    12    14   1
    16    14    15   1
    17    15    16  ar
    18    15    18  ar
    19    16    17  ar
    20    17    20  ar
    21    18    19  ar
    22    19    20  ar
    23     1    21   1
    24     2    22   1
    25     3    23   1
    26     4    24   1
    27     6    25   1
    28     7    26   1
    29     8    27   1
    30     8    28   1
    31     9    29   1
    32    10    30   1
    33    10    31   1
    34    11    32   1
    35    11    33   1
    36    12    34   1
    37    13    35   1
    38    14    36   1
    39    14    37   1
    40    16    38   1
    41    17    39   1
    42    18    40   1
    43    19    41   1
    44    20    42   1
@<TRIPOS>SUBSTRUCTURE
     1  VBZ      2

