@<TRIPOS>MOLECULE
2vo5_ligand_032
    42    44
SMALL
GAST_HUCK
****
This file was generated by PARSER (from files_GN.cpp)

@<TRIPOS>ATOM
      1 O2         37.7953   49.0648   -5.5641 O.3         1 VBZ      -0.3835
      2 C2         36.7222   48.2860   -5.0316 C.3         1 VBZ       0.1262
      3 C3         36.8251   48.0571   -3.4768 C.3         1 VBZ       0.1202
      4 O3         37.9321   48.7356   -2.8681 O.3         1 VBZ      -0.3859
      5 C4         35.4964   48.5205   -2.7775 C.3         1 VBZ       0.1387
      6 O4         35.5780   48.3061   -1.3650 O.3         1 VBZ      -0.3803
      7 C5         34.2916   47.7341   -3.4234 C.3         1 VBZ       0.0237
      8 C6         32.9181   47.8656   -2.6986 C.3         1 VBZ       0.0501
      9 O6         32.4043   49.1904   -2.6277 O.3         1 VBZ      -0.3946
     10 C7         34.2173   48.0285   -4.9652 C.3         1 VBZ       0.0007
     11 C8         35.3186   50.0364   -3.1093 C.3         1 VBZ       0.0023
     12 N1         35.3095   50.2865   -4.6057 N.4         1 VBZ       0.2533
     13 C1         35.3714   48.9952   -5.3922 C.3         1 VBZ       0.0102
     14 C9         34.2758   51.2590   -5.1010 C.3         1 VBZ       0.0024
     15 C10        34.1201   52.4624   -4.2406 C.ar        1 VBZ       0.0014
     16 C11        35.1443   53.4373   -4.1690 C.ar        1 VBZ      -0.0553
     17 C12        35.0347   54.5304   -3.2939 C.ar        1 VBZ      -0.0684
     18 C15        32.9725   52.6256   -3.4233 C.ar        1 VBZ      -0.0553
     19 C14        32.8727   53.7070   -2.5309 C.ar        1 VBZ      -0.0684
     20 C13        33.9064   54.6544   -2.4565 C.ar        1 VBZ      -0.0687
     21 H1         38.5242   48.9978   -4.9068 H           1 VBZ       0.2102
     22 H2         36.7617   47.3147   -5.5425 H           1 VBZ       0.0677
     23 H3         36.9749   46.9909   -3.2823 H           1 VBZ       0.0652
     24 H4         38.6074   48.0583   -2.6249 H           1 VBZ       0.2100
     25 H5         35.9958   47.4275   -1.2562 H           1 VBZ       0.2105
     26 H6         34.5378   46.6796   -3.3105 H           1 VBZ       0.0355
     27 H7         32.1847   47.2254   -3.1916 H           1 VBZ       0.0561
     28 H8         33.0194   47.5208   -1.6748 H           1 VBZ       0.0561
     29 H9         31.9417   49.3590   -3.4842 H           1 VBZ       0.2094
     30 H10        33.2546   48.4633   -5.2392 H           1 VBZ       0.0325
     31 H11        34.3067   47.0886   -5.5216 H           1 VBZ       0.0325
     32 H12        36.1479   50.6000   -2.6771 H           1 VBZ       0.0844
     33 H13        34.4108   50.3875   -2.6245 H           1 VBZ       0.0844
     34 H14        36.2047   50.7392   -4.8080 H           1 VBZ       0.2053
     35 H15        35.3280   49.1795   -6.4707 H           1 VBZ       0.0878
     36 H16        33.3106   50.7549   -5.1980 H           1 VBZ       0.0980
     37 H17        34.5580   51.5980   -6.1067 H           1 VBZ       0.0980
     38 H18        35.9803   53.3493   -4.7547 H           1 VBZ       0.0558
     39 H19        35.7820   55.2257   -3.2456 H           1 VBZ       0.0599
     40 H20        32.2298   51.9218   -3.4338 H           1 VBZ       0.0558
     41 H21        32.0572   53.7889   -1.9128 H           1 VBZ       0.0599
     42 H22        33.8374   55.4407   -1.8069 H           1 VBZ       0.0559
@<TRIPOS>BOND
     1     1     2   1
     2     2     3   1
     3     2    13   1
     4     3     4   1
     5     3     5   1
     6     5     6   1
     7     5     7   1
     8     5    11   1
     9     7     8   1
    10     7    10   1
    11     8     9   1
    12    10    13   1
    13    11    12   1
    14    12    13   1
    15    12    14   1
    16    14    15   1
    17    15    16  ar
    18    15    18  ar
    19    16    17  ar
    20    17    20  ar
    21    18    19  ar
    22    19    20  ar
    23     1    21   1
    24     2    22   1
    25     3    23   1
    26     4    24   1
    27     6    25   1
    28     7    26   1
    29     8    27   1
    30     8    28   1
    31     9    29   1
    32    10    30   1
    33    10    31   1
    34    11    32   1
    35    11    33   1
    36    12    34   1
    37    13    35   1
    38    14    36   1
    39    14    37   1
    40    16    38   1
    41    17    39   1
    42    18    40   1
    43    19    41   1
    44    20    42   1
@<TRIPOS>SUBSTRUCTURE
     1  VBZ      2

