@<TRIPOS>MOLECULE
2vo5_ligand_044
    42    44
SMALL
GAST_HUCK
****
This file was generated by PARSER (from files_GN.cpp)

@<TRIPOS>ATOM
      1 O2         26.7944   45.5040   -1.9398 O.3         1 VBZ      -0.3835
      2 C2         26.9897   46.8318   -2.4286 C.3         1 VBZ       0.1262
      3 C3         27.6327   47.7418   -1.3173 C.3         1 VBZ       0.1202
      4 O3         27.6469   47.0825   -0.0448 O.3         1 VBZ      -0.3859
      5 C4         29.0762   48.1877   -1.7515 C.3         1 VBZ       0.1387
      6 O4         29.6880   48.9266   -0.6844 O.3         1 VBZ      -0.3803
      7 C5         28.9367   49.0698   -3.0498 C.3         1 VBZ       0.0237
      8 C6         30.2641   49.7208   -3.5652 C.3         1 VBZ       0.0501
      9 O6         31.1859   48.8133   -4.1629 O.3         1 VBZ      -0.3946
     10 C7         28.1540   48.2611   -4.1559 C.3         1 VBZ       0.0007
     11 C8         29.8535   46.8758   -2.1224 C.3         1 VBZ       0.0023
     12 N1         29.2143   46.1356   -3.2921 N.4         1 VBZ       0.2533
     13 C1         27.9091   46.7841   -3.6996 C.3         1 VBZ       0.0102
     14 C9         30.1609   45.7724   -4.4138 C.3         1 VBZ       0.0024
     15 C10        29.8189   44.6192   -5.3023 C.ar        1 VBZ       0.0014
     16 C11        30.7306   44.2551   -6.3345 C.ar        1 VBZ      -0.0553
     17 C12        30.4731   43.1426   -7.1629 C.ar        1 VBZ      -0.0684
     18 C15        28.6506   43.8437   -5.1329 C.ar        1 VBZ      -0.0553
     19 C14        28.3891   42.7407   -5.9773 C.ar        1 VBZ      -0.0684
     20 C13        29.2969   42.3858   -6.9940 C.ar        1 VBZ      -0.0687
     21 H1         26.3435   45.0282   -2.6612 H           1 VBZ       0.2102
     22 H2         25.9991   47.2231   -2.6998 H           1 VBZ       0.0677
     23 H3         27.0034   48.6325   -1.1927 H           1 VBZ       0.0652
     24 H4         27.8749   47.7823    0.6042 H           1 VBZ       0.2100
     25 H5         29.2185   49.7928   -0.6802 H           1 VBZ       0.2105
     26 H6         28.2982   49.9208   -2.7843 H           1 VBZ       0.0355
     27 H7         30.0227   50.4778   -4.3196 H           1 VBZ       0.0561
     28 H8         30.7709   50.2192   -2.7322 H           1 VBZ       0.0561
     29 H9         31.9511   49.3756   -4.4281 H           1 VBZ       0.2094
     30 H10        28.6820   48.2688   -5.1138 H           1 VBZ       0.0325
     31 H11        27.1777   48.7319   -4.3429 H           1 VBZ       0.0325
     32 H12        29.8418   46.2058   -1.2542 H           1 VBZ       0.0844
     33 H13        30.9052   47.1272   -2.2874 H           1 VBZ       0.0844
     34 H14        28.9573   45.2352   -2.8975 H           1 VBZ       0.2053
     35 H15        27.4012   46.2191   -4.4873 H           1 VBZ       0.0878
     36 H16        31.1281   45.5209   -3.9756 H           1 VBZ       0.0980
     37 H17        30.3302   46.6419   -5.0534 H           1 VBZ       0.0980
     38 H18        31.5911   44.8019   -6.4824 H           1 VBZ       0.0558
     39 H19        31.1479   42.8805   -7.8887 H           1 VBZ       0.0599
     40 H20        27.9690   44.0831   -4.4046 H           1 VBZ       0.0558
     41 H21        27.5394   42.1920   -5.8515 H           1 VBZ       0.0599
     42 H22        29.0969   41.5781   -7.5981 H           1 VBZ       0.0559
@<TRIPOS>BOND
     1     1     2   1
     2     2     3   1
     3     2    13   1
     4     3     4   1
     5     3     5   1
     6     5     6   1
     7     5     7   1
     8     5    11   1
     9     7     8   1
    10     7    10   1
    11     8     9   1
    12    10    13   1
    13    11    12   1
    14    12    13   1
    15    12    14   1
    16    14    15   1
    17    15    16  ar
    18    15    18  ar
    19    16    17  ar
    20    17    20  ar
    21    18    19  ar
    22    19    20  ar
    23     1    21   1
    24     2    22   1
    25     3    23   1
    26     4    24   1
    27     6    25   1
    28     7    26   1
    29     8    27   1
    30     8    28   1
    31     9    29   1
    32    10    30   1
    33    10    31   1
    34    11    32   1
    35    11    33   1
    36    12    34   1
    37    13    35   1
    38    14    36   1
    39    14    37   1
    40    16    38   1
    41    17    39   1
    42    18    40   1
    43    19    41   1
    44    20    42   1
@<TRIPOS>SUBSTRUCTURE
     1  VBZ      2

