@<TRIPOS>MOLECULE
2vo5_ligand_028
    42    44
SMALL
GAST_HUCK
****
This file was generated by PARSER (from files_GN.cpp)

@<TRIPOS>ATOM
      1 O2         31.3264   51.6606   -6.4453 O.3         1 VBZ      -0.3835
      2 C2         32.2405   52.6644   -6.0059 C.3         1 VBZ       0.1262
      3 C3         31.6980   53.4928   -4.7853 C.3         1 VBZ       0.1202
      4 O3         30.3465   53.1536   -4.4572 O.3         1 VBZ      -0.3859
      5 C4         32.6611   53.3532   -3.5482 C.3         1 VBZ       0.1387
      6 O4         32.1297   54.0610   -2.4249 O.3         1 VBZ      -0.3803
      7 C5         34.0680   53.9272   -3.9897 C.3         1 VBZ       0.0237
      8 C6         35.1396   54.0268   -2.8647 C.3         1 VBZ       0.0501
      9 O6         34.9965   55.2171   -2.0990 O.3         1 VBZ      -0.3946
     10 C7         34.6065   53.1047   -5.2210 C.3         1 VBZ       0.0007
     11 C8         32.8169   51.8258   -3.2401 C.3         1 VBZ       0.0023
     12 N1         33.3324   51.0654   -4.4482 N.4         1 VBZ       0.2533
     13 C1         33.5941   51.9829   -5.6277 C.3         1 VBZ       0.0102
     14 C9         34.4302   50.0961   -4.1133 C.3         1 VBZ       0.0024
     15 C10        34.5634   48.9622   -5.0715 C.ar        1 VBZ       0.0014
     16 C11        33.5124   48.0252   -5.2302 C.ar        1 VBZ      -0.0553
     17 C12        33.5911   47.0150   -6.2045 C.ar        1 VBZ      -0.0684
     18 C15        35.6959   48.8533   -5.9149 C.ar        1 VBZ      -0.0553
     19 C14        35.7736   47.8444   -6.8924 C.ar        1 VBZ      -0.0684
     20 C13        34.7167   46.9306   -7.0449 C.ar        1 VBZ      -0.0687
     21 H1         30.5144   52.1453   -6.7046 H           1 VBZ       0.2102
     22 H2         32.4026   53.3313   -6.8552 H           1 VBZ       0.0677
     23 H3         31.6682   54.5483   -5.0736 H           1 VBZ       0.0652
     24 H4         30.3924   52.3260   -3.9348 H           1 VBZ       0.2100
     25 H5         31.9789   53.3821   -1.7362 H           1 VBZ       0.2105
     26 H6         33.9080   54.9607   -4.3197 H           1 VBZ       0.0355
     27 H7         36.1404   54.0345   -3.3063 H           1 VBZ       0.0561
     28 H8         35.0748   53.1703   -2.1963 H           1 VBZ       0.0561
     29 H9         35.5869   55.0963   -1.3284 H           1 VBZ       0.2094
     30 H10        35.5692   52.6358   -5.0057 H           1 VBZ       0.0325
     31 H11        34.7692   53.7765   -6.0672 H           1 VBZ       0.0325
     32 H12        33.4568   51.7031   -2.3595 H           1 VBZ       0.0844
     33 H13        31.8487   51.4068   -2.9603 H           1 VBZ       0.0844
     34 H14        32.5556   50.4692   -4.7407 H           1 VBZ       0.2053
     35 H15        33.9669   51.4416   -6.5043 H           1 VBZ       0.0878
     36 H16        35.3786   50.6348   -4.0292 H           1 VBZ       0.0980
     37 H17        34.2303   49.6716   -3.1243 H           1 VBZ       0.0980
     38 H18        32.6635   48.1055   -4.6656 H           1 VBZ       0.0558
     39 H19        32.8088   46.3716   -6.3407 H           1 VBZ       0.0599
     40 H20        36.4491   49.5411   -5.8633 H           1 VBZ       0.0558
     41 H21        36.5751   47.8035   -7.5265 H           1 VBZ       0.0599
     42 H22        34.7548   46.2214   -7.7800 H           1 VBZ       0.0559
@<TRIPOS>BOND
     1     1     2   1
     2     2     3   1
     3     2    13   1
     4     3     4   1
     5     3     5   1
     6     5     6   1
     7     5     7   1
     8     5    11   1
     9     7     8   1
    10     7    10   1
    11     8     9   1
    12    10    13   1
    13    11    12   1
    14    12    13   1
    15    12    14   1
    16    14    15   1
    17    15    16  ar
    18    15    18  ar
    19    16    17  ar
    20    17    20  ar
    21    18    19  ar
    22    19    20  ar
    23     1    21   1
    24     2    22   1
    25     3    23   1
    26     4    24   1
    27     6    25   1
    28     7    26   1
    29     8    27   1
    30     8    28   1
    31     9    29   1
    32    10    30   1
    33    10    31   1
    34    11    32   1
    35    11    33   1
    36    12    34   1
    37    13    35   1
    38    14    36   1
    39    14    37   1
    40    16    38   1
    41    17    39   1
    42    18    40   1
    43    19    41   1
    44    20    42   1
@<TRIPOS>SUBSTRUCTURE
     1  VBZ      2

