@<TRIPOS>MOLECULE
2vo5_ligand_052
    42    44
SMALL
GAST_HUCK
****
This file was generated by PARSER (from files_GN.cpp)

@<TRIPOS>ATOM
      1 O2         28.0768   42.5529   -4.9787 O.3         1 VBZ      -0.3835
      2 C2         29.0872   42.4777   -5.9899 C.3         1 VBZ       0.1262
      3 C3         28.5180   42.9707   -7.3686 C.3         1 VBZ       0.1202
      4 O3         27.0949   43.0394   -7.3787 O.3         1 VBZ      -0.3859
      5 C4         29.1720   44.3422   -7.7765 C.3         1 VBZ       0.1387
      6 O4         28.4912   44.8950   -8.9044 O.3         1 VBZ      -0.3803
      7 C5         30.6871   44.0308   -8.0720 C.3         1 VBZ       0.0237
      8 C6         31.5157   45.2121   -8.6594 C.3         1 VBZ       0.0501
      9 O6         30.9786   45.6121   -9.9143 O.3         1 VBZ      -0.3946
     10 C7         31.3358   43.4090   -6.7803 C.3         1 VBZ       0.0007
     11 C8         29.0827   45.3106   -6.5445 C.3         1 VBZ       0.0023
     12 N1         29.7942   44.7454   -5.3326 N.4         1 VBZ       0.2533
     13 C1         30.3195   43.3589   -5.5920 C.3         1 VBZ       0.0102
     14 C9         30.7830   45.6723   -4.6914 C.3         1 VBZ       0.0024
     15 C10        30.1156   46.7925   -3.9780 C.ar        1 VBZ       0.0014
     16 C11        29.2204   46.5319   -2.9108 C.ar        1 VBZ      -0.0553
     17 C12        28.5836   47.5854   -2.2302 C.ar        1 VBZ      -0.0684
     18 C15        30.3694   48.1386   -4.3334 C.ar        1 VBZ      -0.0553
     19 C14        29.7396   49.1896   -3.6445 C.ar        1 VBZ      -0.0684
     20 C13        28.8412   48.9145   -2.5980 C.ar        1 VBZ      -0.0687
     21 H1         28.3835   42.0415   -4.1961 H           1 VBZ       0.2102
     22 H2         29.3891   41.4294   -6.0743 H           1 VBZ       0.0677
     23 H3         28.7645   42.2198   -8.1238 H           1 VBZ       0.0652
     24 H4         26.7964   42.1052   -7.4572 H           1 VBZ       0.2100
     25 H5         28.7906   45.8298   -8.9596 H           1 VBZ       0.2105
     26 H6         30.7179   43.2541   -8.8448 H           1 VBZ       0.0355
     27 H7         32.5499   44.8920   -8.8275 H           1 VBZ       0.0561
     28 H8         31.5276   46.0649   -7.9801 H           1 VBZ       0.0561
     29 H9         31.5211   46.3801  -10.1988 H           1 VBZ       0.2094
     30 H10        32.2039   43.9840   -6.4682 H           1 VBZ       0.0325
     31 H11        31.6877   42.3968   -6.9925 H           1 VBZ       0.0325
     32 H12        28.0308   45.4674   -6.2831 H           1 VBZ       0.0844
     33 H13        29.4676   46.2936   -6.8332 H           1 VBZ       0.0844
     34 H14        29.0736   44.6030   -4.6245 H           1 VBZ       0.2053
     35 H15        30.7999   42.9366   -4.7043 H           1 VBZ       0.0878
     36 H16        31.3848   45.1447   -3.9515 H           1 VBZ       0.0980
     37 H17        31.4862   46.0479   -5.4387 H           1 VBZ       0.0980
     38 H18        29.0199   45.5717   -2.6218 H           1 VBZ       0.0558
     39 H19        27.9334   47.3810   -1.4661 H           1 VBZ       0.0599
     40 H20        31.0150   48.3644   -5.0943 H           1 VBZ       0.0558
     41 H21        29.9390   50.1532   -3.9181 H           1 VBZ       0.0599
     42 H22        28.3764   49.6772   -2.1047 H           1 VBZ       0.0559
@<TRIPOS>BOND
     1     1     2   1
     2     2     3   1
     3     2    13   1
     4     3     4   1
     5     3     5   1
     6     5     6   1
     7     5     7   1
     8     5    11   1
     9     7     8   1
    10     7    10   1
    11     8     9   1
    12    10    13   1
    13    11    12   1
    14    12    13   1
    15    12    14   1
    16    14    15   1
    17    15    16  ar
    18    15    18  ar
    19    16    17  ar
    20    17    20  ar
    21    18    19  ar
    22    19    20  ar
    23     1    21   1
    24     2    22   1
    25     3    23   1
    26     4    24   1
    27     6    25   1
    28     7    26   1
    29     8    27   1
    30     8    28   1
    31     9    29   1
    32    10    30   1
    33    10    31   1
    34    11    32   1
    35    11    33   1
    36    12    34   1
    37    13    35   1
    38    14    36   1
    39    14    37   1
    40    16    38   1
    41    17    39   1
    42    18    40   1
    43    19    41   1
    44    20    42   1
@<TRIPOS>SUBSTRUCTURE
     1  VBZ      2

