@<TRIPOS>MOLECULE
2vo5_ligand_023
    42    44
SMALL
GAST_HUCK
****
This file was generated by PARSER (from files_GN.cpp)

@<TRIPOS>ATOM
      1 O2         28.9364   49.1391   -3.6874 O.3         1 VBZ      -0.3835
      2 C2         30.1718   48.4197   -3.7485 C.3         1 VBZ       0.1262
      3 C3         30.2119   47.4196   -4.9641 C.3         1 VBZ       0.1202
      4 O3         28.9901   47.4447   -5.7179 O.3         1 VBZ      -0.3859
      5 C4         31.4383   47.7370   -5.8989 C.3         1 VBZ       0.1387
      6 O4         31.4441   46.8507   -7.0215 O.3         1 VBZ      -0.3803
      7 C5         32.7549   47.5872   -5.0342 C.3         1 VBZ       0.0237
      8 C6         34.0650   47.5763   -5.8821 C.3         1 VBZ       0.0501
      9 O6         35.1945   48.0518   -5.1444 O.3         1 VBZ      -0.3946
     10 C7         32.7250   48.6375   -3.8592 C.3         1 VBZ       0.0007
     11 C8         31.2904   49.2332   -6.3428 C.3         1 VBZ       0.0023
     12 N1         31.2342   50.1752   -5.1541 N.4         1 VBZ       0.2533
     13 C1         31.3734   49.4280   -3.8490 C.3         1 VBZ       0.0102
     14 C9         32.0911   51.4140   -5.2604 C.3         1 VBZ       0.0024
     15 C10        31.3151   52.5713   -5.7936 C.ar        1 VBZ       0.0014
     16 C11        31.1483   53.7496   -5.0208 C.ar        1 VBZ      -0.0553
     17 C12        30.4658   54.8595   -5.5495 C.ar        1 VBZ      -0.0684
     18 C15        30.7444   52.5163   -7.0898 C.ar        1 VBZ      -0.0553
     19 C14        30.0507   53.6259   -7.6112 C.ar        1 VBZ      -0.0684
     20 C13        29.9201   54.8007   -6.8460 C.ar        1 VBZ      -0.0687
     21 H1         29.0287   49.7488   -2.9262 H           1 VBZ       0.2102
     22 H2         30.2589   47.8550   -2.8113 H           1 VBZ       0.0677
     23 H3         30.3018   46.3956   -4.5774 H           1 VBZ       0.0652
     24 H4         28.2839   47.1767   -5.0885 H           1 VBZ       0.2100
     25 H5         30.6038   47.0252   -7.5000 H           1 VBZ       0.2105
     26 H6         32.7137   46.5962   -4.5628 H           1 VBZ       0.0355
     27 H7         34.2601   46.5476   -6.2192 H           1 VBZ       0.0561
     28 H8         33.9663   48.2109   -6.7747 H           1 VBZ       0.0561
     29 H9         35.2704   47.4615   -4.3651 H           1 VBZ       0.2094
     30 H10        33.5624   49.3343   -3.9579 H           1 VBZ       0.0325
     31 H11        32.8368   48.1218   -2.8967 H           1 VBZ       0.0325
     32 H12        30.3592   49.3536   -6.9091 H           1 VBZ       0.0844
     33 H13        32.0982   49.4708   -7.0325 H           1 VBZ       0.0844
     34 H14        30.2715   50.5232   -5.1450 H           1 VBZ       0.2053
     35 H15        31.3322   50.1102   -2.9914 H           1 VBZ       0.0878
     36 H16        32.9595   51.2487   -5.9126 H           1 VBZ       0.0980
     37 H17        32.5055   51.6763   -4.2793 H           1 VBZ       0.0980
     38 H18        31.5484   53.8157   -4.0756 H           1 VBZ       0.0558
     39 H19        30.3699   55.7079   -4.9913 H           1 VBZ       0.0599
     40 H20        30.8469   51.6800   -7.6675 H           1 VBZ       0.0558
     41 H21        29.6526   53.5846   -8.5470 H           1 VBZ       0.0599
     42 H22        29.4242   55.6149   -7.2311 H           1 VBZ       0.0559
@<TRIPOS>BOND
     1     1     2   1
     2     2     3   1
     3     2    13   1
     4     3     4   1
     5     3     5   1
     6     5     6   1
     7     5     7   1
     8     5    11   1
     9     7     8   1
    10     7    10   1
    11     8     9   1
    12    10    13   1
    13    11    12   1
    14    12    13   1
    15    12    14   1
    16    14    15   1
    17    15    16  ar
    18    15    18  ar
    19    16    17  ar
    20    17    20  ar
    21    18    19  ar
    22    19    20  ar
    23     1    21   1
    24     2    22   1
    25     3    23   1
    26     4    24   1
    27     6    25   1
    28     7    26   1
    29     8    27   1
    30     8    28   1
    31     9    29   1
    32    10    30   1
    33    10    31   1
    34    11    32   1
    35    11    33   1
    36    12    34   1
    37    13    35   1
    38    14    36   1
    39    14    37   1
    40    16    38   1
    41    17    39   1
    42    18    40   1
    43    19    41   1
    44    20    42   1
@<TRIPOS>SUBSTRUCTURE
     1  VBZ      2

