@<TRIPOS>MOLECULE
2vo5_ligand_043
    42    44
SMALL
GAST_HUCK
****
This file was generated by PARSER (from files_GN.cpp)

@<TRIPOS>ATOM
      1 O2         31.9507   48.4400   -5.6357 O.3         1 VBZ      -0.3835
      2 C2         33.0844   47.9507   -4.9121 C.3         1 VBZ       0.1262
      3 C3         34.3854   47.9499   -5.7968 C.3         1 VBZ       0.1202
      4 O3         34.1380   48.3911   -7.1348 O.3         1 VBZ      -0.3859
      5 C4         35.5017   48.8309   -5.1353 C.3         1 VBZ       0.1387
      6 O4         36.6494   48.8544   -5.9879 O.3         1 VBZ      -0.3803
      7 C5         35.8208   48.2166   -3.7166 C.3         1 VBZ       0.0237
      8 C6         37.0513   48.8393   -2.9958 C.3         1 VBZ       0.0501
      9 O6         37.2834   48.2285   -1.7263 O.3         1 VBZ      -0.3946
     10 C7         34.5211   48.2401   -2.8294 C.3         1 VBZ       0.0007
     11 C8         34.9000   50.2637   -4.9256 C.3         1 VBZ       0.0023
     12 N1         33.6223   50.2176   -4.1110 N.4         1 VBZ       0.2533
     13 C1         33.3106   48.8200   -3.6318 C.3         1 VBZ       0.0102
     14 C9         33.5040   51.2764   -3.0546 C.3         1 VBZ       0.0024
     15 C10        33.3158   52.6295   -3.6464 C.ar        1 VBZ       0.0014
     16 C11        32.0096   53.1543   -3.8084 C.ar        1 VBZ      -0.0553
     17 C12        31.8121   54.4380   -4.3484 C.ar        1 VBZ      -0.0684
     18 C15        34.4190   53.4213   -4.0419 C.ar        1 VBZ      -0.0553
     19 C14        34.2209   54.7023   -4.5907 C.ar        1 VBZ      -0.0684
     20 C13        32.9181   55.2104   -4.7447 C.ar        1 VBZ      -0.0687
     21 H1         31.1736   48.2592   -5.0640 H           1 VBZ       0.2102
     22 H2         32.8493   46.9244   -4.6128 H           1 VBZ       0.0677
     23 H3         34.7516   46.9218   -5.8811 H           1 VBZ       0.0652
     24 H4         33.5206   47.7303   -7.5152 H           1 VBZ       0.2100
     25 H5         37.2129   48.1058   -5.6886 H           1 VBZ       0.2105
     26 H6         36.0941   47.1702   -3.8762 H           1 VBZ       0.0355
     27 H7         37.9522   48.7135   -3.6018 H           1 VBZ       0.0561
     28 H8         36.8939   49.9025   -2.8156 H           1 VBZ       0.0561
     29 H9         37.2677   47.2588   -1.8731 H           1 VBZ       0.2094
     30 H10        34.6688   48.8432   -1.9333 H           1 VBZ       0.0325
     31 H11        34.2818   47.2270   -2.4942 H           1 VBZ       0.0325
     32 H12        34.6704   50.7068   -5.8954 H           1 VBZ       0.0844
     33 H13        35.6584   50.9016   -4.4710 H           1 VBZ       0.0844
     34 H14        32.8735   50.4293   -4.7744 H           1 VBZ       0.2053
     35 H15        32.4034   48.7941   -3.0212 H           1 VBZ       0.0878
     36 H16        34.3768   51.2555   -2.3930 H           1 VBZ       0.0980
     37 H17        32.6352   51.0872   -2.4162 H           1 VBZ       0.0980
     38 H18        31.1945   52.6064   -3.5206 H           1 VBZ       0.0558
     39 H19        30.8664   54.8111   -4.4488 H           1 VBZ       0.0599
     40 H20        35.3739   53.0704   -3.9336 H           1 VBZ       0.0558
     41 H21        35.0251   55.2654   -4.8760 H           1 VBZ       0.0599
     42 H22        32.7763   56.1422   -5.1391 H           1 VBZ       0.0559
@<TRIPOS>BOND
     1     1     2   1
     2     2     3   1
     3     2    13   1
     4     3     4   1
     5     3     5   1
     6     5     6   1
     7     5     7   1
     8     5    11   1
     9     7     8   1
    10     7    10   1
    11     8     9   1
    12    10    13   1
    13    11    12   1
    14    12    13   1
    15    12    14   1
    16    14    15   1
    17    15    16  ar
    18    15    18  ar
    19    16    17  ar
    20    17    20  ar
    21    18    19  ar
    22    19    20  ar
    23     1    21   1
    24     2    22   1
    25     3    23   1
    26     4    24   1
    27     6    25   1
    28     7    26   1
    29     8    27   1
    30     8    28   1
    31     9    29   1
    32    10    30   1
    33    10    31   1
    34    11    32   1
    35    11    33   1
    36    12    34   1
    37    13    35   1
    38    14    36   1
    39    14    37   1
    40    16    38   1
    41    17    39   1
    42    18    40   1
    43    19    41   1
    44    20    42   1
@<TRIPOS>SUBSTRUCTURE
     1  VBZ      2

