@<TRIPOS>MOLECULE
2vo5_ligand_027
    42    44
SMALL
GAST_HUCK
****
This file was generated by PARSER (from files_GN.cpp)

@<TRIPOS>ATOM
      1 O2         29.1350   53.1358   -4.5207 O.3         1 VBZ      -0.3835
      2 C2         30.1032   53.2906   -5.5626 C.3         1 VBZ       0.1262
      3 C3         31.2430   54.3058   -5.1794 C.3         1 VBZ       0.1202
      4 O3         31.0468   54.8057   -3.8519 O.3         1 VBZ      -0.3859
      5 C4         32.6551   53.6298   -5.3322 C.3         1 VBZ       0.1387
      6 O4         33.6925   54.5434   -4.9669 O.3         1 VBZ      -0.3803
      7 C5         32.8013   53.1542   -6.8311 C.3         1 VBZ       0.0237
      8 C6         34.2139   52.6352   -7.2370 C.3         1 VBZ       0.0501
      9 O6         35.2281   53.6177   -7.0549 O.3         1 VBZ      -0.3946
     10 C7         31.6667   52.1134   -7.1654 C.3         1 VBZ       0.0007
     11 C8         32.6527   52.3606   -4.4094 C.3         1 VBZ       0.0023
     12 N1         31.5141   51.4169   -4.7385 N.4         1 VBZ       0.2533
     13 C1         30.7239   51.9008   -5.9351 C.3         1 VBZ       0.0102
     14 C9         31.9020   49.9701   -4.7648 C.3         1 VBZ       0.0024
     15 C10        30.7351   49.0660   -4.9329 C.ar        1 VBZ       0.0014
     16 C11        30.3780   48.5656   -6.2097 C.ar        1 VBZ      -0.0553
     17 C12        29.2674   47.7191   -6.3642 C.ar        1 VBZ      -0.0684
     18 C15        29.9198   48.7241   -3.8218 C.ar        1 VBZ      -0.0553
     19 C14        28.8084   47.8799   -3.9749 C.ar        1 VBZ      -0.0684
     20 C13        28.4770   47.3727   -5.2490 C.ar        1 VBZ      -0.0687
     21 H1         29.4817   52.4293   -3.9383 H           1 VBZ       0.2102
     22 H2         29.5508   53.6703   -6.4290 H           1 VBZ       0.0677
     23 H3         31.1788   55.1718   -5.8458 H           1 VBZ       0.0652
     24 H4         30.5026   55.6168   -3.9337 H           1 VBZ       0.2100
     25 H5         33.5262   54.7626   -4.0255 H           1 VBZ       0.2105
     26 H6         32.6288   54.0339   -7.4648 H           1 VBZ       0.0355
     27 H7         34.4821   51.7497   -6.6596 H           1 VBZ       0.0561
     28 H8         34.2106   52.3537   -8.2919 H           1 VBZ       0.0561
     29 H9         35.0101   54.3313   -7.6880 H           1 VBZ       0.2094
     30 H10        32.0826   51.1509   -7.4695 H           1 VBZ       0.0325
     31 H11        31.0758   52.4670   -8.0161 H           1 VBZ       0.0325
     32 H12        32.5333   52.6643   -3.3685 H           1 VBZ       0.0844
     33 H13        33.6245   51.8697   -4.4766 H           1 VBZ       0.0844
     34 H14        30.8758   51.4924   -3.9435 H           1 VBZ       0.2053
     35 H15        29.9249   51.2031   -6.1973 H           1 VBZ       0.0878
     36 H16        32.3953   49.7025   -3.8236 H           1 VBZ       0.0980
     37 H17        32.6387   49.7867   -5.5526 H           1 VBZ       0.0980
     38 H18        30.9331   48.8046   -7.0297 H           1 VBZ       0.0558
     39 H19        29.0087   47.3727   -7.2968 H           1 VBZ       0.0599
     40 H20        30.1387   49.0929   -2.8900 H           1 VBZ       0.0558
     41 H21        28.2310   47.6356   -3.1680 H           1 VBZ       0.0599
     42 H22        27.6723   46.7523   -5.3625 H           1 VBZ       0.0559
@<TRIPOS>BOND
     1     1     2   1
     2     2     3   1
     3     2    13   1
     4     3     4   1
     5     3     5   1
     6     5     6   1
     7     5     7   1
     8     5    11   1
     9     7     8   1
    10     7    10   1
    11     8     9   1
    12    10    13   1
    13    11    12   1
    14    12    13   1
    15    12    14   1
    16    14    15   1
    17    15    16  ar
    18    15    18  ar
    19    16    17  ar
    20    17    20  ar
    21    18    19  ar
    22    19    20  ar
    23     1    21   1
    24     2    22   1
    25     3    23   1
    26     4    24   1
    27     6    25   1
    28     7    26   1
    29     8    27   1
    30     8    28   1
    31     9    29   1
    32    10    30   1
    33    10    31   1
    34    11    32   1
    35    11    33   1
    36    12    34   1
    37    13    35   1
    38    14    36   1
    39    14    37   1
    40    16    38   1
    41    17    39   1
    42    18    40   1
    43    19    41   1
    44    20    42   1
@<TRIPOS>SUBSTRUCTURE
     1  VBZ      2

