@<TRIPOS>MOLECULE
2vo5_ligand_013
    42    44
SMALL
GAST_HUCK
****
This file was generated by PARSER (from files_GN.cpp)

@<TRIPOS>ATOM
      1 O2         29.7194   47.2412    0.7500 O.3         1 VBZ      -0.3835
      2 C2         28.5443   46.9254    0.0010 C.3         1 VBZ       0.1262
      3 C3         27.5863   48.1704   -0.0985 C.3         1 VBZ       0.1202
      4 O3         27.9377   49.2343    0.7927 O.3         1 VBZ      -0.3859
      5 C4         27.4624   48.6498   -1.5924 C.3         1 VBZ       0.1387
      6 O4         26.6945   49.8551   -1.6686 O.3         1 VBZ      -0.3803
      7 C5         26.7624   47.4881   -2.4018 C.3         1 VBZ       0.0237
      8 C6         26.3644   47.8071   -3.8869 C.3         1 VBZ       0.0501
      9 O6         26.7358   49.0933   -4.3686 O.3         1 VBZ      -0.3946
     10 C7         27.6012   46.1602   -2.2231 C.3         1 VBZ       0.0007
     11 C8         28.9204   48.8297   -2.1522 C.3         1 VBZ       0.0023
     12 N1         29.7216   47.5515   -2.0658 N.4         1 VBZ       0.2533
     13 C1         28.9277   46.4315   -1.4414 C.3         1 VBZ       0.0102
     14 C9         30.6247   47.2341   -3.2270 C.3         1 VBZ       0.0024
     15 C10        30.0300   47.0239   -4.5819 C.ar        1 VBZ       0.0014
     16 C11        29.5333   45.7568   -4.9678 C.ar        1 VBZ      -0.0553
     17 C12        28.9539   45.5563   -6.2342 C.ar        1 VBZ      -0.0684
     18 C15        30.0105   48.0651   -5.5410 C.ar        1 VBZ      -0.0553
     19 C14        29.4595   47.8618   -6.8203 C.ar        1 VBZ      -0.0684
     20 C13        28.8979   46.6161   -7.1565 C.ar        1 VBZ      -0.0687
     21 H1         30.3364   46.4919    0.6089 H           1 VBZ       0.2102
     22 H2         28.0351   46.1166    0.5351 H           1 VBZ       0.0677
     23 H3         26.5991   47.8543    0.2490 H           1 VBZ       0.0652
     24 H4         28.2988   49.9657    0.2491 H           1 VBZ       0.2100
     25 H5         27.2531   50.5558   -1.2734 H           1 VBZ       0.2105
     26 H6         25.8045   47.3095   -1.8973 H           1 VBZ       0.0355
     27 H7         26.7838   47.0765   -4.5791 H           1 VBZ       0.0561
     28 H8         25.2796   47.7535   -3.9973 H           1 VBZ       0.0561
     29 H9         26.1198   49.7183   -3.9318 H           1 VBZ       0.2094
     30 H10        27.8390   45.6767   -3.1683 H           1 VBZ       0.0325
     31 H11        27.0072   45.4342   -1.6600 H           1 VBZ       0.0325
     32 H12        29.4462   49.5746   -1.5514 H           1 VBZ       0.0844
     33 H13        28.8839   49.2289   -3.1623 H           1 VBZ       0.0844
     34 H14        30.4149   47.7478   -1.3404 H           1 VBZ       0.2053
     35 H15        29.5190   45.5155   -1.3668 H           1 VBZ       0.0878
     36 H16        31.2356   46.3652   -2.9715 H           1 VBZ       0.0980
     37 H17        31.3433   48.0554   -3.3002 H           1 VBZ       0.0980
     38 H18        29.6041   44.9605   -4.3312 H           1 VBZ       0.0558
     39 H19        28.5693   44.6425   -6.4859 H           1 VBZ       0.0599
     40 H20        30.4013   48.9852   -5.3185 H           1 VBZ       0.0558
     41 H21        29.4540   48.6203   -7.5029 H           1 VBZ       0.0599
     42 H22        28.4759   46.4759   -8.0769 H           1 VBZ       0.0559
@<TRIPOS>BOND
     1     1     2   1
     2     2     3   1
     3     2    13   1
     4     3     4   1
     5     3     5   1
     6     5     6   1
     7     5     7   1
     8     5    11   1
     9     7     8   1
    10     7    10   1
    11     8     9   1
    12    10    13   1
    13    11    12   1
    14    12    13   1
    15    12    14   1
    16    14    15   1
    17    15    16  ar
    18    15    18  ar
    19    16    17  ar
    20    17    20  ar
    21    18    19  ar
    22    19    20  ar
    23     1    21   1
    24     2    22   1
    25     3    23   1
    26     4    24   1
    27     6    25   1
    28     7    26   1
    29     8    27   1
    30     8    28   1
    31     9    29   1
    32    10    30   1
    33    10    31   1
    34    11    32   1
    35    11    33   1
    36    12    34   1
    37    13    35   1
    38    14    36   1
    39    14    37   1
    40    16    38   1
    41    17    39   1
    42    18    40   1
    43    19    41   1
    44    20    42   1
@<TRIPOS>SUBSTRUCTURE
     1  VBZ      2

