@<TRIPOS>MOLECULE
2vo5_ligand_024
    42    44
SMALL
GAST_HUCK
****
This file was generated by PARSER (from files_GN.cpp)

@<TRIPOS>ATOM
      1 O2         32.1213   49.1535   -2.5375 O.3         1 VBZ      -0.3835
      2 C2         31.8117   49.1542   -3.9308 C.3         1 VBZ       0.1262
      3 C3         32.8001   48.2373   -4.7526 C.3         1 VBZ       0.1202
      4 O3         33.7616   47.5832   -3.9123 O.3         1 VBZ      -0.3859
      5 C4         31.9963   47.2070   -5.6209 C.3         1 VBZ       0.1387
      6 O4         32.9141   46.3801   -6.3353 O.3         1 VBZ      -0.3803
      7 C5         31.0598   48.0315   -6.5875 C.3         1 VBZ       0.0237
      8 C6         30.3234   47.1922   -7.6772 C.3         1 VBZ       0.0501
      9 O6         30.1053   47.9554   -8.8613 O.3         1 VBZ      -0.3946
     10 C7         30.0522   48.8852   -5.7131 C.3         1 VBZ       0.0007
     11 C8         31.0887   46.3798   -4.6535 C.3         1 VBZ       0.0023
     12 N1         30.2314   47.2694   -3.7668 N.4         1 VBZ       0.2533
     13 C1         30.3278   48.7213   -4.1816 C.3         1 VBZ       0.0102
     14 C9         28.8626   46.6994   -3.5240 C.3         1 VBZ       0.0024
     15 C10        27.8321   47.6234   -2.9774 C.ar        1 VBZ       0.0014
     16 C11        27.9991   48.2884   -1.7385 C.ar        1 VBZ      -0.0553
     17 C12        27.0695   49.2639   -1.3180 C.ar        1 VBZ      -0.0684
     18 C15        26.6362   47.8592   -3.7013 C.ar        1 VBZ      -0.0553
     19 C14        25.7027   48.8271   -3.2812 C.ar        1 VBZ      -0.0684
     20 C13        25.9450   49.5653   -2.1136 C.ar        1 VBZ      -0.0687
     21 H1         32.0154   48.2193   -2.2407 H           1 VBZ       0.2102
     22 H2         31.9352   50.1909   -4.2617 H           1 VBZ       0.0677
     23 H3         33.3984   48.8784   -5.4172 H           1 VBZ       0.0652
     24 H4         33.2575   47.0722   -3.2404 H           1 VBZ       0.2100
     25 H5         32.3904   45.6490   -6.7058 H           1 VBZ       0.2105
     26 H6         31.7017   48.7277   -7.1415 H           1 VBZ       0.0355
     27 H7         30.9051   46.3121   -7.9624 H           1 VBZ       0.0561
     28 H8         29.3500   46.8496   -7.3150 H           1 VBZ       0.0561
     29 H9         30.9943   48.0881   -9.2519 H           1 VBZ       0.2094
     30 H10        29.0188   48.5926   -5.9162 H           1 VBZ       0.0325
     31 H11        30.1394   49.9448   -5.9889 H           1 VBZ       0.0325
     32 H12        31.7084   45.7461   -4.0114 H           1 VBZ       0.0844
     33 H13        30.4829   45.6947   -5.2535 H           1 VBZ       0.0844
     34 H14        30.6792   47.2321   -2.8518 H           1 VBZ       0.2053
     35 H15        29.6555   49.3403   -3.5807 H           1 VBZ       0.0878
     36 H16        28.9601   45.8671   -2.8285 H           1 VBZ       0.0980
     37 H17        28.4960   46.2935   -4.4739 H           1 VBZ       0.0980
     38 H18        28.8025   48.0803   -1.1427 H           1 VBZ       0.0558
     39 H19        27.2158   49.7770   -0.4379 H           1 VBZ       0.0599
     40 H20        26.4346   47.3298   -4.5581 H           1 VBZ       0.0558
     41 H21        24.8700   49.0034   -3.8382 H           1 VBZ       0.0599
     42 H22        25.3024   50.3068   -1.8382 H           1 VBZ       0.0559
@<TRIPOS>BOND
     1     1     2   1
     2     2     3   1
     3     2    13   1
     4     3     4   1
     5     3     5   1
     6     5     6   1
     7     5     7   1
     8     5    11   1
     9     7     8   1
    10     7    10   1
    11     8     9   1
    12    10    13   1
    13    11    12   1
    14    12    13   1
    15    12    14   1
    16    14    15   1
    17    15    16  ar
    18    15    18  ar
    19    16    17  ar
    20    17    20  ar
    21    18    19  ar
    22    19    20  ar
    23     1    21   1
    24     2    22   1
    25     3    23   1
    26     4    24   1
    27     6    25   1
    28     7    26   1
    29     8    27   1
    30     8    28   1
    31     9    29   1
    32    10    30   1
    33    10    31   1
    34    11    32   1
    35    11    33   1
    36    12    34   1
    37    13    35   1
    38    14    36   1
    39    14    37   1
    40    16    38   1
    41    17    39   1
    42    18    40   1
    43    19    41   1
    44    20    42   1
@<TRIPOS>SUBSTRUCTURE
     1  VBZ      2

