@<TRIPOS>MOLECULE
2vot_ligand_014
    41    43
SMALL
GAST_HUCK
****
This file was generated by PARSER (from files_GN.cpp)

@<TRIPOS>ATOM
      1 O6B        32.7646   50.4115   -8.9687 O.3         1 NHV      -0.3919
      2 C6B        32.3422   49.4914   -7.9630 C.3         1 NHV       0.0768
      3 C5B        31.3820   50.1789   -6.9523 C.3         1 NHV       0.1168
      4 C4B        32.0392   51.3363   -6.1168 C.3         1 NHV       0.1178
      5 O4B        30.9971   52.2469   -5.7232 O.3         1 NHV      -0.3858
      6 C3B        32.7787   50.8196   -4.8455 C.3         1 NHV       0.1252
      7 O3B        33.9396   50.0633   -5.1991 O.3         1 NHV      -0.3839
      8 O2B        32.5576   49.2200   -2.9831 O.3         1 NHV      -0.3700
      9 N1B        30.7614   49.2048   -6.0844 N.pl3       1 NHV      -0.2494
     10 C8B        29.8263   48.2985   -6.4206 C.2         1 NHV       0.0253
     11 C7B        29.4261   47.6457   -5.2544 C.2         1 NHV       0.0014
     12 N2B        30.1257   48.1698   -4.2384 N.2         1 NHV      -0.3297
     13 C1B        30.9509   49.0998   -4.7511 C.2         1 NHV       0.1428
     14 C7         28.3137   46.6877   -5.0974 C.3         1 NHV       0.0480
     15 N1         27.1638   47.3943   -4.6258 N.pl3       1 NHV      -0.3158
     16 C1         26.9768   47.9700   -3.4079 C.ar        1 NHV       0.0390
     17 C6         27.6845   47.5974   -2.2367 C.ar        1 NHV      -0.0444
     18 C5         27.4905   48.2909   -1.0324 C.ar        1 NHV      -0.0737
     19 C4         26.6084   49.3816   -0.9817 C.ar        1 NHV      -0.0751
     20 C3         25.8958   49.7582   -2.1363 C.ar        1 NHV      -0.0737
     21 C2         26.0619   49.0398   -3.3325 C.ar        1 NHV      -0.0444
     22 C20        31.8271   49.9768   -3.9465 C.3         1 NHV       0.1578
     23 H1         33.3524   49.8899   -9.5582 H           1 NHV       0.2095
     24 H2         33.2194   49.0824   -7.4598 H           1 NHV       0.0589
     25 H3         31.8305   48.6655   -8.4595 H           1 NHV       0.0589
     26 H4         30.5919   50.6322   -7.5548 H           1 NHV       0.0699
     27 H5         32.7391   51.9085   -6.7336 H           1 NHV       0.0654
     28 H6         31.1744   52.4629   -4.7791 H           1 NHV       0.2100
     29 H7         33.1331   51.6727   -4.2637 H           1 NHV       0.0675
     30 H8         34.5354   50.6955   -5.6517 H           1 NHV       0.2103
     31 H9         33.0255   48.5251   -3.4918 H           1 NHV       0.2138
     32 H10        29.4201   48.1641   -7.3493 H           1 NHV       0.0663
     33 H11        28.5974   45.8777   -4.4251 H           1 NHV       0.0617
     34 H12        28.0738   46.2487   -6.0611 H           1 NHV       0.0617
     35 H13        26.5059   47.6198   -5.3107 H           1 NHV       0.1774
     36 H14        28.3340   46.8116   -2.2476 H           1 NHV       0.0515
     37 H15        28.0055   48.0146   -0.1921 H           1 NHV       0.0583
     38 H16        26.4829   49.9040   -0.1132 H           1 NHV       0.0505
     39 H17        25.2617   50.5601   -2.1031 H           1 NHV       0.0583
     40 H18        25.5506   49.3450   -4.1624 H           1 NHV       0.0515
     41 H19        31.1817   50.6596   -3.3917 H           1 NHV       0.0858
@<TRIPOS>BOND
     1     1     2   1
     2     2     3   1
     3     3     4   1
     4     3     9   1
     5     4     5   1
     6     4     6   1
     7     6     7   1
     8     6    22   1
     9    22     8   1
    10     9    10   1
    11     9    13   1
    12    10    11   2
    13    11    12   1
    14    11    14   1
    15    12    13   2
    16    13    22   1
    17    14    15   1
    18    15    16   1
    19    16    17  ar
    20    16    21  ar
    21    17    18  ar
    22    18    19  ar
    23    19    20  ar
    24    20    21  ar
    25     1    23   1
    26     2    24   1
    27     2    25   1
    28     3    26   1
    29     4    27   1
    30     5    28   1
    31     6    29   1
    32     7    30   1
    33     8    31   1
    34    10    32   1
    35    14    33   1
    36    14    34   1
    37    15    35   1
    38    17    36   1
    39    18    37   1
    40    19    38   1
    41    20    39   1
    42    21    40   1
    43    22    41   1
@<TRIPOS>SUBSTRUCTURE
     1  NHV      2

