@<TRIPOS>MOLECULE
2vot_ligand_011
    41    43
SMALL
GAST_HUCK
****
This file was generated by PARSER (from files_GN.cpp)

@<TRIPOS>ATOM
      1 O6B        25.9697   50.6060   -1.8798 O.3         1 NHV      -0.3919
      2 C6B        26.4684   50.0929   -3.1145 C.3         1 NHV       0.0768
      3 C5B        27.0425   48.6538   -2.9967 C.3         1 NHV       0.1168
      4 C4B        26.3875   47.8228   -1.8361 C.3         1 NHV       0.1178
      5 O4B        26.2055   46.4718   -2.2794 O.3         1 NHV      -0.3858
      6 C3B        27.2287   47.7963   -0.5208 C.3         1 NHV       0.1252
      7 O3B        27.1852   49.0494    0.1632 O.3         1 NHV      -0.3839
      8 O2B        29.5194   47.6632    0.3358 O.3         1 NHV      -0.3700
      9 N1B        28.4802   48.6304   -2.9283 N.pl3       1 NHV      -0.2494
     10 C8B        29.3179   49.0500   -3.8914 C.2         1 NHV       0.0253
     11 C7B        30.6156   48.7119   -3.5244 C.2         1 NHV       0.0014
     12 N2B        30.5407   48.0788   -2.3403 N.2         1 NHV      -0.3297
     13 C1B        29.2421   48.0509   -1.9810 C.2         1 NHV       0.1428
     14 C7         31.8268   48.9694   -4.3155 C.3         1 NHV       0.0480
     15 N1         32.5889   47.8507   -4.8097 N.pl3       1 NHV      -0.3158
     16 C1         32.2041   46.7589   -5.5063 C.ar        1 NHV       0.0390
     17 C6         32.8165   46.5713   -6.7817 C.ar        1 NHV      -0.0444
     18 C5         32.4397   45.5264   -7.6184 C.ar        1 NHV      -0.0737
     19 C4         31.4807   44.5809   -7.1938 C.ar        1 NHV      -0.0751
     20 C3         30.8785   44.7235   -5.9231 C.ar        1 NHV      -0.0737
     21 C2         31.2083   45.8128   -5.1182 C.ar        1 NHV      -0.0444
     22 C20        28.7003   47.3642   -0.7897 C.3         1 NHV       0.1578
     23 H1         26.7293   51.0636   -1.4513 H           1 NHV       0.2095
     24 H2         27.2333   50.7775   -3.4916 H           1 NHV       0.0589
     25 H3         25.6428   50.0987   -3.8359 H           1 NHV       0.0589
     26 H4         26.7618   48.1727   -3.9326 H           1 NHV       0.0699
     27 H5         25.3860   48.2096   -1.6077 H           1 NHV       0.0654
     28 H6         25.6322   46.0399   -1.6045 H           1 NHV       0.2100
     29 H7         26.7842   47.0710    0.1641 H           1 NHV       0.0675
     30 H8         27.6937   49.6798   -0.3812 H           1 NHV       0.2103
     31 H9         29.1483   47.1246    1.0731 H           1 NHV       0.2138
     32 H10        29.0571   49.4963   -4.7766 H           1 NHV       0.0663
     33 H11        32.4979   49.5784   -3.7023 H           1 NHV       0.0617
     34 H12        31.5587   49.5529   -5.1941 H           1 NHV       0.0617
     35 H13        33.5467   48.0366   -4.8554 H           1 NHV       0.1774
     36 H14        33.5383   47.2291   -7.0988 H           1 NHV       0.0515
     37 H15        32.8783   45.4262   -8.5452 H           1 NHV       0.0583
     38 H16        31.2272   43.8020   -7.8030 H           1 NHV       0.0505
     39 H17        30.1909   44.0372   -5.6198 H           1 NHV       0.0583
     40 H18        30.7454   45.8975   -4.2149 H           1 NHV       0.0515
     41 H19        28.7440   46.2791   -0.9539 H           1 NHV       0.0858
@<TRIPOS>BOND
     1     1     2   1
     2     2     3   1
     3     3     4   1
     4     3     9   1
     5     4     5   1
     6     4     6   1
     7     6     7   1
     8     6    22   1
     9    22     8   1
    10     9    10   1
    11     9    13   1
    12    10    11   2
    13    11    12   1
    14    11    14   1
    15    12    13   2
    16    13    22   1
    17    14    15   1
    18    15    16   1
    19    16    17  ar
    20    16    21  ar
    21    17    18  ar
    22    18    19  ar
    23    19    20  ar
    24    20    21  ar
    25     1    23   1
    26     2    24   1
    27     2    25   1
    28     3    26   1
    29     4    27   1
    30     5    28   1
    31     6    29   1
    32     7    30   1
    33     8    31   1
    34    10    32   1
    35    14    33   1
    36    14    34   1
    37    15    35   1
    38    17    36   1
    39    18    37   1
    40    19    38   1
    41    20    39   1
    42    21    40   1
    43    22    41   1
@<TRIPOS>SUBSTRUCTURE
     1  NHV      2

