@<TRIPOS>MOLECULE
2vot_ligand_026
    41    43
SMALL
GAST_HUCK
****
This file was generated by PARSER (from files_GN.cpp)

@<TRIPOS>ATOM
      1 O6B        30.3301   46.0140   -0.6832 O.3         1 NHV      -0.3919
      2 C6B        30.0427   47.3665   -0.3788 C.3         1 NHV       0.0768
      3 C5B        29.1047   48.0377   -1.4258 C.3         1 NHV       0.1168
      4 C4B        27.6579   47.4294   -1.4713 C.3         1 NHV       0.1178
      5 O4B        26.7520   48.4454   -1.9032 O.3         1 NHV      -0.3858
      6 C3B        27.5389   46.2051   -2.4301 C.3         1 NHV       0.1252
      7 O3B        28.2169   45.0941   -1.8375 O.3         1 NHV      -0.3839
      8 O2B        28.3658   45.3170   -4.5872 O.3         1 NHV      -0.3700
      9 N1B        29.7158   48.0478   -2.7336 N.pl3       1 NHV      -0.2494
     10 C8B        30.7987   48.7515   -3.1052 C.2         1 NHV       0.0253
     11 C7B        30.9956   48.5390   -4.4719 C.2         1 NHV       0.0014
     12 N2B        30.0409   47.7002   -4.8962 N.2         1 NHV      -0.3297
     13 C1B        29.2796   47.3833   -3.8290 C.2         1 NHV       0.1428
     14 C7         32.0577   49.1401   -5.2936 C.3         1 NHV       0.0480
     15 N1         32.0307   50.5619   -5.1364 N.pl3       1 NHV      -0.3158
     16 C1         32.7628   51.3506   -4.3059 C.ar        1 NHV       0.0390
     17 C6         33.9980   50.9802   -3.7054 C.ar        1 NHV      -0.0444
     18 C5         34.6628   51.8588   -2.8325 C.ar        1 NHV      -0.0737
     19 C4         34.1044   53.1136   -2.5283 C.ar        1 NHV      -0.0751
     20 C3         32.8769   53.4888   -3.1035 C.ar        1 NHV      -0.0737
     21 C2         32.2218   52.6157   -3.9928 C.ar        1 NHV      -0.0444
     22 C20        28.0860   46.5174   -3.8591 C.3         1 NHV       0.1578
     23 H1         30.8010   46.0370   -1.5452 H           1 NHV       0.2095
     24 H2         30.9908   47.9054   -0.3381 H           1 NHV       0.0589
     25 H3         29.5928   47.4145    0.6149 H           1 NHV       0.0589
     26 H4         28.9973   49.0822   -1.1158 H           1 NHV       0.0699
     27 H5         27.3415   47.1364   -0.4661 H           1 NHV       0.0654
     28 H6         25.8549   48.1004   -1.7090 H           1 NHV       0.2100
     29 H7         26.4846   45.9287   -2.5282 H           1 NHV       0.0675
     30 H8         27.5075   44.4961   -1.5121 H           1 NHV       0.2103
     31 H9         28.9574   44.7778   -4.0189 H           1 NHV       0.2138
     32 H10        31.3464   49.3637   -2.5095 H           1 NHV       0.0663
     33 H11        31.8820   48.9169   -6.3498 H           1 NHV       0.0617
     34 H12        33.0095   48.6888   -5.0214 H           1 NHV       0.0617
     35 H13        31.3127   51.0082   -5.6108 H           1 NHV       0.1774
     36 H14        34.4256   50.0764   -3.8910 H           1 NHV       0.0515
     37 H15        35.5500   51.5796   -2.4071 H           1 NHV       0.0583
     38 H16        34.5861   53.7451   -1.8844 H           1 NHV       0.0505
     39 H17        32.4565   54.3902   -2.8643 H           1 NHV       0.0583
     40 H18        31.3226   52.9090   -4.3883 H           1 NHV       0.0515
     41 H19        27.3182   47.0541   -4.4225 H           1 NHV       0.0858
@<TRIPOS>BOND
     1     1     2   1
     2     2     3   1
     3     3     4   1
     4     3     9   1
     5     4     5   1
     6     4     6   1
     7     6     7   1
     8     6    22   1
     9    22     8   1
    10     9    10   1
    11     9    13   1
    12    10    11   2
    13    11    12   1
    14    11    14   1
    15    12    13   2
    16    13    22   1
    17    14    15   1
    18    15    16   1
    19    16    17  ar
    20    16    21  ar
    21    17    18  ar
    22    18    19  ar
    23    19    20  ar
    24    20    21  ar
    25     1    23   1
    26     2    24   1
    27     2    25   1
    28     3    26   1
    29     4    27   1
    30     5    28   1
    31     6    29   1
    32     7    30   1
    33     8    31   1
    34    10    32   1
    35    14    33   1
    36    14    34   1
    37    15    35   1
    38    17    36   1
    39    18    37   1
    40    19    38   1
    41    20    39   1
    42    21    40   1
    43    22    41   1
@<TRIPOS>SUBSTRUCTURE
     1  NHV      2

