@<TRIPOS>MOLECULE
2vot_ligand_007
    41    43
SMALL
GAST_HUCK
****
This file was generated by PARSER (from files_GN.cpp)

@<TRIPOS>ATOM
      1 O6B        28.4538   44.7855   -0.9444 O.3         1 NHV      -0.3919
      2 C6B        27.6287   45.8444   -0.4724 C.3         1 NHV       0.0768
      3 C5B        27.9254   47.1969   -1.1852 C.3         1 NHV       0.1168
      4 C4B        27.0473   48.3290   -0.5424 C.3         1 NHV       0.1178
      5 O4B        27.5677   48.7557    0.7172 O.3         1 NHV      -0.3858
      6 C3B        26.9045   49.5575   -1.4692 C.3         1 NHV       0.1252
      7 O3B        26.0814   50.5417   -0.8496 O.3         1 NHV      -0.3839
      8 O2B        24.9206   48.8704   -2.7722 O.3         1 NHV      -0.3700
      9 N1B        27.7547   47.1220   -2.6307 N.pl3       1 NHV      -0.2494
     10 C8B        28.3919   46.3199   -3.5036 C.2         1 NHV       0.0253
     11 C7B        27.9901   46.6691   -4.7790 C.2         1 NHV       0.0014
     12 N2B        27.1341   47.6888   -4.6814 N.2         1 NHV      -0.3297
     13 C1B        27.0018   47.9710   -3.3747 C.2         1 NHV       0.1428
     14 C7         28.5193   46.1653   -6.0494 C.3         1 NHV       0.0480
     15 N1         29.7212   46.7236   -6.6118 N.pl3       1 NHV      -0.3158
     16 C1         30.1761   48.0053   -6.5476 C.ar        1 NHV       0.0390
     17 C6         30.1782   48.8352   -5.3986 C.ar        1 NHV      -0.0444
     18 C5         30.6152   50.1713   -5.4668 C.ar        1 NHV      -0.0737
     19 C4         31.0786   50.6927   -6.6849 C.ar        1 NHV      -0.0751
     20 C3         31.1208   49.8728   -7.8268 C.ar        1 NHV      -0.0737
     21 C2         30.6982   48.5334   -7.7497 C.ar        1 NHV      -0.0444
     22 C20        26.3099   49.1618   -2.8527 C.3         1 NHV       0.1578
     23 H1         27.8794   44.3022   -1.5784 H           1 NHV       0.2095
     24 H2         27.8161   45.9419    0.5947 H           1 NHV       0.0589
     25 H3         26.5773   45.5717   -0.6069 H           1 NHV       0.0589
     26 H4         28.9759   47.4468   -1.0111 H           1 NHV       0.0699
     27 H5         26.0453   47.9389   -0.3676 H           1 NHV       0.0654
     28 H6         28.0462   47.9869    1.0934 H           1 NHV       0.2100
     29 H7         27.8998   49.9881   -1.6205 H           1 NHV       0.0675
     30 H8         26.6841   51.2961   -0.6552 H           1 NHV       0.2103
     31 H9         24.4833   49.7465   -2.6794 H           1 NHV       0.2138
     32 H10        29.1024   45.6183   -3.2725 H           1 NHV       0.0663
     33 H11        27.7364   46.2900   -6.8110 H           1 NHV       0.0617
     34 H12        28.6778   45.0858   -5.9608 H           1 NHV       0.0617
     35 H13        30.0054   46.2489   -7.4114 H           1 NHV       0.1774
     36 H14        29.9231   48.4741   -4.4836 H           1 NHV       0.0515
     37 H15        30.6219   50.7553   -4.6288 H           1 NHV       0.0583
     38 H16        31.3756   51.6688   -6.7419 H           1 NHV       0.0505
     39 H17        31.4632   50.2449   -8.7156 H           1 NHV       0.0583
     40 H18        30.7329   47.9661   -8.5961 H           1 NHV       0.0515
     41 H19        26.4532   49.9915   -3.5456 H           1 NHV       0.0858
@<TRIPOS>BOND
     1     1     2   1
     2     2     3   1
     3     3     4   1
     4     3     9   1
     5     4     5   1
     6     4     6   1
     7     6     7   1
     8     6    22   1
     9    22     8   1
    10     9    10   1
    11     9    13   1
    12    10    11   2
    13    11    12   1
    14    11    14   1
    15    12    13   2
    16    13    22   1
    17    14    15   1
    18    15    16   1
    19    16    17  ar
    20    16    21  ar
    21    17    18  ar
    22    18    19  ar
    23    19    20  ar
    24    20    21  ar
    25     1    23   1
    26     2    24   1
    27     2    25   1
    28     3    26   1
    29     4    27   1
    30     5    28   1
    31     6    29   1
    32     7    30   1
    33     8    31   1
    34    10    32   1
    35    14    33   1
    36    14    34   1
    37    15    35   1
    38    17    36   1
    39    18    37   1
    40    19    38   1
    41    20    39   1
    42    21    40   1
    43    22    41   1
@<TRIPOS>SUBSTRUCTURE
     1  NHV      2

