@<TRIPOS>MOLECULE
2vot_ligand_027
    41    43
SMALL
GAST_HUCK
****
This file was generated by PARSER (from files_GN.cpp)

@<TRIPOS>ATOM
      1 O6B        31.3516   48.4273   -0.2465 O.3         1 NHV      -0.3919
      2 C6B        30.6572   49.2030   -1.2260 C.3         1 NHV       0.0768
      3 C5B        29.2903   48.5821   -1.6682 C.3         1 NHV       0.1168
      4 C4B        28.5437   47.8626   -0.4887 C.3         1 NHV       0.1178
      5 O4B        28.0769   48.8103    0.4732 O.3         1 NHV      -0.3858
      6 C3B        27.3514   47.0122   -1.0226 C.3         1 NHV       0.1252
      7 O3B        26.6304   46.4077    0.0539 O.3         1 NHV      -0.3839
      8 O2B        28.5381   44.8820   -1.3589 O.3         1 NHV      -0.3700
      9 N1B        29.3995   47.7293   -2.8383 N.pl3       1 NHV      -0.2494
     10 C8B        29.9426   48.0613   -4.0258 C.2         1 NHV       0.0253
     11 C7B        29.6269   47.0652   -4.9468 C.2         1 NHV       0.0014
     12 N2B        28.8769   46.1625   -4.2983 N.2         1 NHV      -0.3297
     13 C1B        28.7717   46.5558   -3.0234 C.2         1 NHV       0.1428
     14 C7         29.8292   47.1346   -6.3880 C.3         1 NHV       0.0480
     15 N1         30.6051   46.0590   -6.9168 N.pl3       1 NHV      -0.3158
     16 C1         31.9048   46.1105   -7.2753 C.ar        1 NHV       0.0390
     17 C6         32.2738   45.5900   -8.5497 C.ar        1 NHV      -0.0444
     18 C5         33.5743   45.7518   -9.0344 C.ar        1 NHV      -0.0737
     19 C4         34.5624   46.3834   -8.2401 C.ar        1 NHV      -0.0751
     20 C3         34.2302   46.8403   -6.9454 C.ar        1 NHV      -0.0737
     21 C2         32.9172   46.7161   -6.4845 C.ar        1 NHV      -0.0444
     22 C20        27.8591   45.9421   -2.0297 C.3         1 NHV       0.1578
     23 H1         31.5112   47.5459   -0.6665 H           1 NHV       0.2095
     24 H2         31.3342   49.3309   -2.0753 H           1 NHV       0.0589
     25 H3         30.4768   50.1942   -0.8023 H           1 NHV       0.0589
     26 H4         28.6571   49.4231   -1.9756 H           1 NHV       0.0699
     27 H5         29.2238   47.1916    0.0327 H           1 NHV       0.0654
     28 H6         27.9691   48.3051    1.3149 H           1 NHV       0.2100
     29 H7         26.6596   47.6867   -1.5323 H           1 NHV       0.0675
     30 H8         27.2966   45.8868    0.5556 H           1 NHV       0.2103
     31 H9         27.8277   44.2225   -1.1692 H           1 NHV       0.2138
     32 H10        30.4120   48.9464   -4.2528 H           1 NHV       0.0663
     33 H11        30.2814   48.0989   -6.6731 H           1 NHV       0.0617
     34 H12        28.8558   47.1068   -6.8673 H           1 NHV       0.0617
     35 H13        30.0895   45.2937   -7.2543 H           1 NHV       0.1774
     36 H14        31.5762   45.1415   -9.1387 H           1 NHV       0.0515
     37 H15        33.8158   45.4416   -9.9795 H           1 NHV       0.0583
     38 H16        35.5096   46.4973   -8.5952 H           1 NHV       0.0505
     39 H17        34.9456   47.2911   -6.3741 H           1 NHV       0.0583
     40 H18        32.6859   47.0803   -5.5482 H           1 NHV       0.0515
     41 H19        26.9981   45.5400   -2.5656 H           1 NHV       0.0858
@<TRIPOS>BOND
     1     1     2   1
     2     2     3   1
     3     3     4   1
     4     3     9   1
     5     4     5   1
     6     4     6   1
     7     6     7   1
     8     6    22   1
     9    22     8   1
    10     9    10   1
    11     9    13   1
    12    10    11   2
    13    11    12   1
    14    11    14   1
    15    12    13   2
    16    13    22   1
    17    14    15   1
    18    15    16   1
    19    16    17  ar
    20    16    21  ar
    21    17    18  ar
    22    18    19  ar
    23    19    20  ar
    24    20    21  ar
    25     1    23   1
    26     2    24   1
    27     2    25   1
    28     3    26   1
    29     4    27   1
    30     5    28   1
    31     6    29   1
    32     7    30   1
    33     8    31   1
    34    10    32   1
    35    14    33   1
    36    14    34   1
    37    15    35   1
    38    17    36   1
    39    18    37   1
    40    19    38   1
    41    20    39   1
    42    21    40   1
    43    22    41   1
@<TRIPOS>SUBSTRUCTURE
     1  NHV      2

