@<TRIPOS>MOLECULE
2vot_ligand_013
    41    43
SMALL
GAST_HUCK
****
This file was generated by PARSER (from files_GN.cpp)

@<TRIPOS>ATOM
      1 O6B        28.8821   46.2129   -6.1471 O.3         1 NHV      -0.3919
      2 C6B        28.3909   46.7740   -4.9303 C.3         1 NHV       0.0768
      3 C5B        29.1137   46.1649   -3.6830 C.3         1 NHV       0.1168
      4 C4B        28.1619   46.0231   -2.4381 C.3         1 NHV       0.1178
      5 O4B        28.6051   44.9576   -1.5865 O.3         1 NHV      -0.3858
      6 C3B        28.0941   47.3230   -1.5844 C.3         1 NHV       0.1252
      7 O3B        27.3998   48.3531   -2.2934 O.3         1 NHV      -0.3839
      8 O2B        29.4666   49.1250   -0.6601 O.3         1 NHV      -0.3700
      9 N1B        30.3102   46.9261   -3.3765 N.pl3       1 NHV      -0.2494
     10 C8B        31.3874   47.1084   -4.1656 C.2         1 NHV       0.0253
     11 C7B        32.2153   48.0449   -3.5504 C.2         1 NHV       0.0014
     12 N2B        31.6496   48.3820   -2.3777 N.2         1 NHV      -0.3297
     13 C1B        30.4965   47.6886   -2.2740 C.2         1 NHV       0.1428
     14 C7         33.3222   48.8106   -4.1719 C.3         1 NHV       0.0480
     15 N1         34.5964   48.1726   -4.3019 N.pl3       1 NHV      -0.3158
     16 C1         35.1730   47.7518   -5.4593 C.ar        1 NHV       0.0390
     17 C6         34.4773   47.0819   -6.4978 C.ar        1 NHV      -0.0444
     18 C5         35.1242   46.7457   -7.7010 C.ar        1 NHV      -0.0737
     19 C4         36.4782   47.0888   -7.8990 C.ar        1 NHV      -0.0751
     20 C3         37.1847   47.7538   -6.8769 C.ar        1 NHV      -0.0737
     21 C2         36.5370   48.0854   -5.6731 C.ar        1 NHV      -0.0444
     22 C20        29.5208   47.7937   -1.1655 C.3         1 NHV       0.1578
     23 H1         28.5419   45.2911   -6.1481 H           1 NHV       0.2095
     24 H2         27.3145   46.5804   -4.8887 H           1 NHV       0.0589
     25 H3         28.5434   47.8552   -4.9769 H           1 NHV       0.0589
     26 H4         29.4265   45.1524   -3.9579 H           1 NHV       0.0699
     27 H5         27.1524   45.7644   -2.7768 H           1 NHV       0.0654
     28 H6         27.7925   44.4372   -1.4043 H           1 NHV       0.2100
     29 H7         27.5067   47.1217   -0.6824 H           1 NHV       0.0675
     30 H8         27.9981   48.6216   -3.0211 H           1 NHV       0.2103
     31 H9         29.2814   49.7069   -1.4272 H           1 NHV       0.2138
     32 H10        31.5229   46.7169   -5.1044 H           1 NHV       0.0663
     33 H11        33.5050   49.6939   -3.5596 H           1 NHV       0.0617
     34 H12        32.9824   49.1882   -5.1397 H           1 NHV       0.0617
     35 H13        35.2135   48.3281   -3.5661 H           1 NHV       0.1774
     36 H14        33.4903   46.8284   -6.3790 H           1 NHV       0.0515
     37 H15        34.6145   46.2505   -8.4377 H           1 NHV       0.0583
     38 H16        36.9448   46.8532   -8.7771 H           1 NHV       0.0505
     39 H17        38.1703   47.9995   -7.0182 H           1 NHV       0.0583
     40 H18        37.0703   48.5689   -4.9412 H           1 NHV       0.0515
     41 H19        29.8776   47.1516   -0.3551 H           1 NHV       0.0858
@<TRIPOS>BOND
     1     1     2   1
     2     2     3   1
     3     3     4   1
     4     3     9   1
     5     4     5   1
     6     4     6   1
     7     6     7   1
     8     6    22   1
     9    22     8   1
    10     9    10   1
    11     9    13   1
    12    10    11   2
    13    11    12   1
    14    11    14   1
    15    12    13   2
    16    13    22   1
    17    14    15   1
    18    15    16   1
    19    16    17  ar
    20    16    21  ar
    21    17    18  ar
    22    18    19  ar
    23    19    20  ar
    24    20    21  ar
    25     1    23   1
    26     2    24   1
    27     2    25   1
    28     3    26   1
    29     4    27   1
    30     5    28   1
    31     6    29   1
    32     7    30   1
    33     8    31   1
    34    10    32   1
    35    14    33   1
    36    14    34   1
    37    15    35   1
    38    17    36   1
    39    18    37   1
    40    19    38   1
    41    20    39   1
    42    21    40   1
    43    22    41   1
@<TRIPOS>SUBSTRUCTURE
     1  NHV      2

