@<TRIPOS>MOLECULE
2vot_ligand_025
    41    43
SMALL
GAST_HUCK
****
This file was generated by PARSER (from files_GN.cpp)

@<TRIPOS>ATOM
      1 O6B        29.4528   48.0067   -6.7376 O.3         1 NHV      -0.3919
      2 C6B        30.1007   46.7508   -6.5683 C.3         1 NHV       0.0768
      3 C5B        30.2157   46.3614   -5.0600 C.3         1 NHV       0.1168
      4 C4B        28.8033   46.2735   -4.3902 C.3         1 NHV       0.1178
      5 O4B        28.1451   45.0758   -4.7978 O.3         1 NHV      -0.3858
      6 C3B        28.8799   46.3439   -2.8372 C.3         1 NHV       0.1252
      7 O3B        27.5709   46.2738   -2.2721 O.3         1 NHV      -0.3839
      8 O2B        28.7556   48.7832   -2.5636 O.3         1 NHV      -0.3700
      9 N1B        31.1028   47.2646   -4.3490 N.pl3       1 NHV      -0.2494
     10 C8B        32.3118   47.7275   -4.7322 C.2         1 NHV       0.0253
     11 C7B        32.7013   48.7057   -3.8248 C.2         1 NHV       0.0014
     12 N2B        31.7968   48.7150   -2.8395 N.2         1 NHV      -0.3297
     13 C1B        30.8281   47.8467   -3.1667 C.2         1 NHV       0.1428
     14 C7         33.7661   49.7137   -3.9478 C.3         1 NHV       0.0480
     15 N1         33.0686   50.9745   -3.9955 N.pl3       1 NHV      -0.3158
     16 C1         33.5496   52.1822   -3.6115 C.ar        1 NHV       0.0390
     17 C6         32.5988   53.0260   -2.9706 C.ar        1 NHV      -0.0444
     18 C5         33.0179   54.2374   -2.4104 C.ar        1 NHV      -0.0737
     19 C4         34.3494   54.6770   -2.5647 C.ar        1 NHV      -0.0751
     20 C3         35.2800   53.8619   -3.2393 C.ar        1 NHV      -0.0737
     21 C2         34.8808   52.6258   -3.7583 C.ar        1 NHV      -0.0444
     22 C20        29.5986   47.6429   -2.3763 C.3         1 NHV       0.1578
     23 H1         30.1078   48.6797   -6.4467 H           1 NHV       0.2095
     24 H2         31.0943   46.8036   -7.0222 H           1 NHV       0.0589
     25 H3         29.5335   45.9856   -7.1015 H           1 NHV       0.0589
     26 H4         30.6903   45.3663   -5.0058 H           1 NHV       0.0699
     27 H5         28.1828   47.1029   -4.7390 H           1 NHV       0.0654
     28 H6         28.6076   44.3515   -4.3242 H           1 NHV       0.2100
     29 H7         29.4466   45.4884   -2.4758 H           1 NHV       0.0675
     30 H8         27.2884   45.3434   -2.3741 H           1 NHV       0.2103
     31 H9         29.2876   49.5690   -2.3320 H           1 NHV       0.2138
     32 H10        32.7813   47.5259   -5.6239 H           1 NHV       0.0663
     33 H11        34.3421   49.5644   -4.8692 H           1 NHV       0.0617
     34 H12        34.4133   49.6472   -3.0690 H           1 NHV       0.0617
     35 H13        32.0780   50.9042   -4.1423 H           1 NHV       0.1774
     36 H14        31.6350   52.7250   -2.8586 H           1 NHV       0.0515
     37 H15        32.3409   54.8277   -1.9332 H           1 NHV       0.0583
     38 H16        34.6467   55.5615   -2.1657 H           1 NHV       0.0505
     39 H17        36.2460   54.1690   -3.3476 H           1 NHV       0.0583
     40 H18        35.5615   52.0465   -4.2979 H           1 NHV       0.0515
     41 H19        29.8515   47.5611   -1.3213 H           1 NHV       0.0858
@<TRIPOS>BOND
     1     1     2   1
     2     2     3   1
     3     3     4   1
     4     3     9   1
     5     4     5   1
     6     4     6   1
     7     6     7   1
     8     6    22   1
     9    22     8   1
    10     9    10   1
    11     9    13   1
    12    10    11   2
    13    11    12   1
    14    11    14   1
    15    12    13   2
    16    13    22   1
    17    14    15   1
    18    15    16   1
    19    16    17  ar
    20    16    21  ar
    21    17    18  ar
    22    18    19  ar
    23    19    20  ar
    24    20    21  ar
    25     1    23   1
    26     2    24   1
    27     2    25   1
    28     3    26   1
    29     4    27   1
    30     5    28   1
    31     6    29   1
    32     7    30   1
    33     8    31   1
    34    10    32   1
    35    14    33   1
    36    14    34   1
    37    15    35   1
    38    17    36   1
    39    18    37   1
    40    19    38   1
    41    20    39   1
    42    21    40   1
    43    22    41   1
@<TRIPOS>SUBSTRUCTURE
     1  NHV      2

