@<TRIPOS>MOLECULE
2vot_ligand_021
    41    43
SMALL
GAST_HUCK
****
This file was generated by PARSER (from files_GN.cpp)

@<TRIPOS>ATOM
      1 O6B        28.4761   43.1200   -6.5357 O.3         1 NHV      -0.3919
      2 C6B        29.0019   44.1335   -5.6745 C.3         1 NHV       0.0768
      3 C5B        29.4118   45.3942   -6.5005 C.3         1 NHV       0.1168
      4 C4B        30.9199   45.2995   -6.9295 C.3         1 NHV       0.1178
      5 O4B        31.0797   44.3006   -7.9393 O.3         1 NHV      -0.3858
      6 C3B        31.4522   46.6677   -7.4454 C.3         1 NHV       0.1252
      7 O3B        32.8163   46.5585   -7.8552 O.3         1 NHV      -0.3839
      8 O2B        32.2327   47.6524   -5.3029 O.3         1 NHV      -0.3700
      9 N1B        29.1143   46.6531   -5.8456 N.pl3       1 NHV      -0.2494
     10 C8B        27.9552   47.0282   -5.2741 C.2         1 NHV       0.0253
     11 C7B        28.1082   48.3177   -4.7844 C.2         1 NHV       0.0014
     12 N2B        29.3478   48.7250   -5.0997 N.2         1 NHV      -0.3297
     13 C1B        29.9379   47.7236   -5.7767 C.2         1 NHV       0.1428
     14 C7         27.1544   49.0758   -3.9510 C.3         1 NHV       0.0480
     15 N1         27.7200   49.1233   -2.6410 N.pl3       1 NHV      -0.3158
     16 C1         27.6709   48.1033   -1.7475 C.ar        1 NHV       0.0390
     17 C6         28.8453   47.7891   -1.0306 C.ar        1 NHV      -0.0444
     18 C5         28.8991   46.6704   -0.1864 C.ar        1 NHV      -0.0737
     19 C4         27.7699   45.8422   -0.0408 C.ar        1 NHV      -0.0751
     20 C3         26.5705   46.1763   -0.6943 C.ar        1 NHV      -0.0737
     21 C2         26.5249   47.2868   -1.5526 C.ar        1 NHV      -0.0444
     22 C20        31.2909   47.7812   -6.3667 C.3         1 NHV       0.1578
     23 H1         28.1731   42.4043   -5.9361 H           1 NHV       0.2095
     24 H2         29.8630   43.7315   -5.1336 H           1 NHV       0.0589
     25 H3         28.2290   44.3749   -4.9412 H           1 NHV       0.0589
     26 H4         28.8058   45.3959   -7.4115 H           1 NHV       0.0699
     27 H5         31.5406   45.0155   -6.0695 H           1 NHV       0.0654
     28 H6         31.3369   43.4848   -7.4538 H           1 NHV       0.2100
     29 H7         30.8755   46.9567   -8.3310 H           1 NHV       0.0675
     30 H8         33.2845   46.1304   -7.1062 H           1 NHV       0.2103
     31 H9         33.0994   47.8960   -5.6913 H           1 NHV       0.2138
     32 H10        27.1137   46.4584   -5.1799 H           1 NHV       0.0663
     33 H11        26.1590   48.6321   -3.9787 H           1 NHV       0.0617
     34 H12        27.0641   50.0896   -4.3357 H           1 NHV       0.0617
     35 H13        28.4910   49.7061   -2.5591 H           1 NHV       0.1774
     36 H14        29.6820   48.3621   -1.1504 H           1 NHV       0.0515
     37 H15        29.7726   46.4419    0.3007 H           1 NHV       0.0583
     38 H16        27.8197   45.0046    0.5471 H           1 NHV       0.0505
     39 H17        25.7363   45.6021   -0.5431 H           1 NHV       0.0583
     40 H18        25.6324   47.5056   -1.9958 H           1 NHV       0.0515
     41 H19        31.4392   48.7576   -6.8390 H           1 NHV       0.0858
@<TRIPOS>BOND
     1     1     2   1
     2     2     3   1
     3     3     4   1
     4     3     9   1
     5     4     5   1
     6     4     6   1
     7     6     7   1
     8     6    22   1
     9    22     8   1
    10     9    10   1
    11     9    13   1
    12    10    11   2
    13    11    12   1
    14    11    14   1
    15    12    13   2
    16    13    22   1
    17    14    15   1
    18    15    16   1
    19    16    17  ar
    20    16    21  ar
    21    17    18  ar
    22    18    19  ar
    23    19    20  ar
    24    20    21  ar
    25     1    23   1
    26     2    24   1
    27     2    25   1
    28     3    26   1
    29     4    27   1
    30     5    28   1
    31     6    29   1
    32     7    30   1
    33     8    31   1
    34    10    32   1
    35    14    33   1
    36    14    34   1
    37    15    35   1
    38    17    36   1
    39    18    37   1
    40    19    38   1
    41    20    39   1
    42    21    40   1
    43    22    41   1
@<TRIPOS>SUBSTRUCTURE
     1  NHV      2

