@<TRIPOS>MOLECULE
2vot_ligand_002
    41    43
SMALL
GAST_HUCK
****
This file was generated by PARSER (from files_GN.cpp)

@<TRIPOS>ATOM
      1 O6B        26.4020   49.7981   -0.6325 O.3         1 NHV      -0.3919
      2 C6B        26.3019   49.2884   -1.9670 C.3         1 NHV       0.0768
      3 C5B        27.2402   48.0792   -2.2507 C.3         1 NHV       0.1168
      4 C4B        27.3109   47.1190   -1.0166 C.3         1 NHV       0.1178
      5 O4B        26.0641   46.4323   -0.8611 O.3         1 NHV      -0.3858
      6 C3B        28.4925   46.0985   -1.1336 C.3         1 NHV       0.1252
      7 O3B        28.5386   45.2587    0.0281 O.3         1 NHV      -0.3839
      8 O2B        30.2340   47.5183   -0.1119 O.3         1 NHV      -0.3700
      9 N1B        28.5497   48.4343   -2.7365 N.pl3       1 NHV      -0.2494
     10 C8B        28.8245   49.2082   -3.8010 C.2         1 NHV       0.0253
     11 C7B        30.1909   49.1149   -4.0805 C.2         1 NHV       0.0014
     12 N2B        30.7189   48.2743   -3.1751 N.2         1 NHV      -0.3297
     13 C1B        29.7195   47.8735   -2.3695 C.2         1 NHV       0.1428
     14 C7         30.9052   49.7933   -5.1855 C.3         1 NHV       0.0480
     15 N1         31.2564   49.0828   -6.3738 N.pl3       1 NHV      -0.3158
     16 C1         30.5046   48.2270   -7.1171 C.ar        1 NHV       0.0390
     17 C6         30.6691   48.3059   -8.5241 C.ar        1 NHV      -0.0444
     18 C5         29.8718   47.5299   -9.3872 C.ar        1 NHV      -0.0737
     19 C4         28.9312   46.6203   -8.8678 C.ar        1 NHV      -0.0751
     20 C3         28.8088   46.4727   -7.4812 C.ar        1 NHV      -0.0737
     21 C2         29.5821   47.2692   -6.6166 C.ar        1 NHV      -0.0444
     22 C20        29.8478   46.8529   -1.3164 C.3         1 NHV       0.1578
     23 H1         27.1098   50.5070   -0.6437 H           1 NHV       0.2095
     24 H2         26.4739   50.1064   -2.6804 H           1 NHV       0.0589
     25 H3         25.2684   48.9685   -2.0910 H           1 NHV       0.0589
     26 H4         26.7723   47.5210   -3.0639 H           1 NHV       0.0699
     27 H5         27.4658   47.6857   -0.0977 H           1 NHV       0.0654
     28 H6         26.1759   45.5701   -1.3508 H           1 NHV       0.2100
     29 H7         28.3286   45.4520   -2.0058 H           1 NHV       0.0675
     30 H8         27.8523   44.5734   -0.1227 H           1 NHV       0.2103
     31 H9         30.9905   46.9924    0.2376 H           1 NHV       0.2138
     32 H10        28.1372   49.7060   -4.3811 H           1 NHV       0.0663
     33 H11        31.8223   50.1940   -4.7596 H           1 NHV       0.0617
     34 H12        30.3111   50.6480   -5.5069 H           1 NHV       0.0617
     35 H13        31.9609   49.5243   -6.8799 H           1 NHV       0.1774
     36 H14        31.3308   48.9614   -8.9287 H           1 NHV       0.0515
     37 H15        29.9762   47.6323  -10.4072 H           1 NHV       0.0583
     38 H16        28.3565   46.0694   -9.4987 H           1 NHV       0.0505
     39 H17        28.1579   45.7917   -7.0975 H           1 NHV       0.0583
     40 H18        29.4912   47.0994   -5.6089 H           1 NHV       0.0515
     41 H19        30.6247   46.1372   -1.5986 H           1 NHV       0.0858
@<TRIPOS>BOND
     1     1     2   1
     2     2     3   1
     3     3     4   1
     4     3     9   1
     5     4     5   1
     6     4     6   1
     7     6     7   1
     8     6    22   1
     9    22     8   1
    10     9    10   1
    11     9    13   1
    12    10    11   2
    13    11    12   1
    14    11    14   1
    15    12    13   2
    16    13    22   1
    17    14    15   1
    18    15    16   1
    19    16    17  ar
    20    16    21  ar
    21    17    18  ar
    22    18    19  ar
    23    19    20  ar
    24    20    21  ar
    25     1    23   1
    26     2    24   1
    27     2    25   1
    28     3    26   1
    29     4    27   1
    30     5    28   1
    31     6    29   1
    32     7    30   1
    33     8    31   1
    34    10    32   1
    35    14    33   1
    36    14    34   1
    37    15    35   1
    38    17    36   1
    39    18    37   1
    40    19    38   1
    41    20    39   1
    42    21    40   1
    43    22    41   1
@<TRIPOS>SUBSTRUCTURE
     1  NHV      2

