@<TRIPOS>MOLECULE
2vot_ligand_005
    41    43
SMALL
GAST_HUCK
****
This file was generated by PARSER (from files_GN.cpp)

@<TRIPOS>ATOM
      1 O6B        30.4507   51.9117   -5.2684 O.3         1 NHV      -0.3919
      2 C6B        31.6099   51.1092   -5.5024 C.3         1 NHV       0.0768
      3 C5B        31.2461   49.6561   -5.9387 C.3         1 NHV       0.1168
      4 C4B        30.1214   48.9805   -5.0712 C.3         1 NHV       0.1178
      5 O4B        29.3871   48.0403   -5.8743 O.3         1 NHV      -0.3858
      6 C3B        30.6820   48.2409   -3.8182 C.3         1 NHV       0.1252
      7 O3B        31.2086   49.1766   -2.8725 O.3         1 NHV      -0.3839
      8 O2B        32.5053   46.7470   -3.0743 O.3         1 NHV      -0.3700
      9 N1B        32.4380   48.8399   -5.9840 N.pl3       1 NHV      -0.2494
     10 C8B        33.4518   48.9425   -6.8646 C.2         1 NHV       0.0253
     11 C7B        34.3385   47.8943   -6.6353 C.2         1 NHV       0.0014
     12 N2B        33.8401   47.1673   -5.6288 N.2         1 NHV      -0.3297
     13 C1B        32.7040   47.7614   -5.2132 C.2         1 NHV       0.1428
     14 C7         35.4834   47.5074   -7.4761 C.3         1 NHV       0.0480
     15 N1         35.0309   46.5270   -8.4150 N.pl3       1 NHV      -0.3158
     16 C1         35.6563   46.1345   -9.5670 C.ar        1 NHV       0.0390
     17 C6         36.9949   46.4531   -9.8937 C.ar        1 NHV      -0.0444
     18 C5         37.5635   46.0044  -11.1070 C.ar        1 NHV      -0.0737
     19 C4         36.8269   45.1356  -11.9523 C.ar        1 NHV      -0.0751
     20 C3         35.4923   44.8232  -11.6457 C.ar        1 NHV      -0.0737
     21 C2         34.9001   45.3326  -10.4686 C.ar        1 NHV      -0.0444
     22 C20        31.7721   47.2018   -4.2108 C.3         1 NHV       0.1578
     23 H1         30.2605   51.8108   -4.3075 H           1 NHV       0.2095
     24 H2         32.2236   51.1123   -4.5943 H           1 NHV       0.0589
     25 H3         32.1795   51.5955   -6.3056 H           1 NHV       0.0589
     26 H4         30.8603   49.7323   -6.9612 H           1 NHV       0.0699
     27 H5         29.3917   49.7206   -4.7525 H           1 NHV       0.0654
     28 H6         30.0526   47.4545   -6.3077 H           1 NHV       0.2100
     29 H7         29.8579   47.7208   -3.3284 H           1 NHV       0.0675
     30 H8         30.4882   49.8263   -2.7449 H           1 NHV       0.2103
     31 H9         32.1214   45.8656   -2.8529 H           1 NHV       0.2138
     32 H10        33.5065   49.6182   -7.6212 H           1 NHV       0.0663
     33 H11        36.2735   47.1043   -6.8313 H           1 NHV       0.0617
     34 H12        35.8710   48.3781   -8.0072 H           1 NHV       0.0617
     35 H13        34.2767   45.9743   -8.1365 H           1 NHV       0.1774
     36 H14        37.5661   47.0415   -9.2680 H           1 NHV       0.0515
     37 H15        38.5150   46.2953  -11.3509 H           1 NHV       0.0583
     38 H16        37.2494   44.7709  -12.8125 H           1 NHV       0.0505
     39 H17        34.9558   44.2189  -12.2860 H           1 NHV       0.0583
     40 H18        33.9207   45.0886  -10.2680 H           1 NHV       0.0515
     41 H19        31.2998   46.3332   -4.6776 H           1 NHV       0.0858
@<TRIPOS>BOND
     1     1     2   1
     2     2     3   1
     3     3     4   1
     4     3     9   1
     5     4     5   1
     6     4     6   1
     7     6     7   1
     8     6    22   1
     9    22     8   1
    10     9    10   1
    11     9    13   1
    12    10    11   2
    13    11    12   1
    14    11    14   1
    15    12    13   2
    16    13    22   1
    17    14    15   1
    18    15    16   1
    19    16    17  ar
    20    16    21  ar
    21    17    18  ar
    22    18    19  ar
    23    19    20  ar
    24    20    21  ar
    25     1    23   1
    26     2    24   1
    27     2    25   1
    28     3    26   1
    29     4    27   1
    30     5    28   1
    31     6    29   1
    32     7    30   1
    33     8    31   1
    34    10    32   1
    35    14    33   1
    36    14    34   1
    37    15    35   1
    38    17    36   1
    39    18    37   1
    40    19    38   1
    41    20    39   1
    42    21    40   1
    43    22    41   1
@<TRIPOS>SUBSTRUCTURE
     1  NHV      2

