@<TRIPOS>MOLECULE
2vot_ligand_010
    41    43
SMALL
GAST_HUCK
****
This file was generated by PARSER (from files_GN.cpp)

@<TRIPOS>ATOM
      1 O6B        26.7260   47.7124   -4.4604 O.3         1 NHV      -0.3919
      2 C6B        27.8863   46.9295   -4.7287 C.3         1 NHV       0.0768
      3 C5B        28.7153   46.5932   -3.4527 C.3         1 NHV       0.1168
      4 C4B        27.8215   46.1569   -2.2267 C.3         1 NHV       0.1178
      5 O4B        28.4901   45.1159   -1.4882 O.3         1 NHV      -0.3858
      6 C3B        27.4977   47.3196   -1.2370 C.3         1 NHV       0.1252
      7 O3B        26.5639   48.2285   -1.8239 O.3         1 NHV      -0.3839
      8 O2B        28.4864   49.2564   -0.0683 O.3         1 NHV      -0.3700
      9 N1B        29.6243   47.6664   -3.1302 N.pl3       1 NHV      -0.2494
     10 C8B        30.5975   48.1655   -3.9109 C.2         1 NHV       0.0253
     11 C7B        31.2355   49.1769   -3.2022 C.2         1 NHV       0.0014
     12 N2B        30.6538   49.2603   -1.9961 N.2         1 NHV      -0.3297
     13 C1B        29.6662   48.3465   -1.9653 C.2         1 NHV       0.1428
     14 C7         32.3424   50.0173   -3.6821 C.3         1 NHV       0.0480
     15 N1         32.0842   51.3848   -3.3547 N.pl3       1 NHV      -0.3158
     16 C1         32.8713   52.4563   -3.6312 C.ar        1 NHV       0.0390
     17 C6         32.2922   53.5072   -4.3815 C.ar        1 NHV      -0.0444
     18 C5         33.0390   54.6485   -4.7257 C.ar        1 NHV      -0.0737
     19 C4         34.3781   54.7654   -4.3106 C.ar        1 NHV      -0.0751
     20 C3         34.9670   53.7366   -3.5493 C.ar        1 NHV      -0.0737
     21 C2         34.2246   52.5886   -3.2258 C.ar        1 NHV      -0.0444
     22 C20        28.7969   48.0629   -0.8029 C.3         1 NHV       0.1578
     23 H1         27.0676   48.5911   -4.1735 H           1 NHV       0.2095
     24 H2         28.5017   47.4620   -5.4547 H           1 NHV       0.0589
     25 H3         27.5648   46.0014   -5.1980 H           1 NHV       0.0589
     26 H4         29.3417   45.7307   -3.7207 H           1 NHV       0.0699
     27 H5         26.8872   45.7277   -2.5900 H           1 NHV       0.0654
     28 H6         27.7930   44.4435   -1.3129 H           1 NHV       0.2100
     29 H7         27.0131   46.8972   -0.3482 H           1 NHV       0.0675
     30 H8         26.2069   48.7430   -1.0744 H           1 NHV       0.2103
     31 H9         28.5492   50.0117   -0.6903 H           1 NHV       0.2138
     32 H10        30.8309   47.8598   -4.8603 H           1 NHV       0.0663
     33 H11        32.4509   49.9242   -4.7685 H           1 NHV       0.0617
     34 H12        33.2614   49.6674   -3.2138 H           1 NHV       0.0617
     35 H13        31.2433   51.5668   -2.9016 H           1 NHV       0.1774
     36 H14        31.3226   53.4432   -4.6960 H           1 NHV       0.0515
     37 H15        32.6116   55.3999   -5.2756 H           1 NHV       0.0583
     38 H16        34.9192   55.5998   -4.5468 H           1 NHV       0.0505
     39 H17        35.9372   53.8269   -3.2389 H           1 NHV       0.0583
     40 H18        34.6794   51.8595   -2.6749 H           1 NHV       0.0515
     41 H19        29.3587   47.4144   -0.1290 H           1 NHV       0.0858
@<TRIPOS>BOND
     1     1     2   1
     2     2     3   1
     3     3     4   1
     4     3     9   1
     5     4     5   1
     6     4     6   1
     7     6     7   1
     8     6    22   1
     9    22     8   1
    10     9    10   1
    11     9    13   1
    12    10    11   2
    13    11    12   1
    14    11    14   1
    15    12    13   2
    16    13    22   1
    17    14    15   1
    18    15    16   1
    19    16    17  ar
    20    16    21  ar
    21    17    18  ar
    22    18    19  ar
    23    19    20  ar
    24    20    21  ar
    25     1    23   1
    26     2    24   1
    27     2    25   1
    28     3    26   1
    29     4    27   1
    30     5    28   1
    31     6    29   1
    32     7    30   1
    33     8    31   1
    34    10    32   1
    35    14    33   1
    36    14    34   1
    37    15    35   1
    38    17    36   1
    39    18    37   1
    40    19    38   1
    41    20    39   1
    42    21    40   1
    43    22    41   1
@<TRIPOS>SUBSTRUCTURE
     1  NHV      2

