@<TRIPOS>MOLECULE
2vot_ligand_000
    41    43
SMALL
GAST_HUCK
****
This file was generated by PARSER (from files_GN.cpp)

@<TRIPOS>ATOM
      1 O6B        28.4002   45.1459   -0.4340 O.3         1 NHV      -0.3919
      2 C6B        27.6493   46.3379   -0.1848 C.3         1 NHV       0.0768
      3 C5B        27.9110   47.4322   -1.2548 C.3         1 NHV       0.1168
      4 C4B        27.0704   48.7047   -0.9078 C.3         1 NHV       0.1178
      5 O4B        27.6070   49.3604    0.2514 O.3         1 NHV      -0.3858
      6 C3B        26.9699   49.6888   -2.1045 C.3         1 NHV       0.1252
      7 O3B        26.1601   50.8033   -1.7337 O.3         1 NHV      -0.3839
      8 O2B        25.0066   48.7096   -3.1803 O.3         1 NHV      -0.3700
      9 N1B        27.7275   47.0045   -2.6242 N.pl3       1 NHV      -0.2494
     10 C8B        28.3676   46.0004   -3.2282 C.2         1 NHV       0.0253
     11 C7B        28.1709   46.1239   -4.6062 C.2         1 NHV       0.0014
     12 N2B        27.3807   47.1940   -4.8052 N.2         1 NHV      -0.3297
     13 C1B        27.1002   47.7097   -3.5941 C.2         1 NHV       0.1428
     14 C7         28.9094   45.3485   -5.6310 C.3         1 NHV       0.0480
     15 N1         30.3011   45.4200   -5.2638 N.pl3       1 NHV      -0.3158
     16 C1         31.3603   45.7795   -6.0141 C.ar        1 NHV       0.0390
     17 C6         32.2663   46.6706   -5.3850 C.ar        1 NHV      -0.0444
     18 C5         33.4152   47.1197   -6.0443 C.ar        1 NHV      -0.0737
     19 C4         33.7257   46.6495   -7.3362 C.ar        1 NHV      -0.0751
     20 C3         32.8460   45.7278   -7.9659 C.ar        1 NHV      -0.0737
     21 C2         31.6670   45.3357   -7.3255 C.ar        1 NHV      -0.0444
     22 C20        26.3903   48.9851   -3.3591 C.3         1 NHV       0.1578
     23 H1         27.7080   44.4788   -0.6871 H           1 NHV       0.2095
     24 H2         27.9656   46.6862    0.8043 H           1 NHV       0.0589
     25 H3         26.5737   46.0982   -0.1286 H           1 NHV       0.0589
     26 H4         28.9553   47.7169   -1.1563 H           1 NHV       0.0699
     27 H5         26.0506   48.3989   -0.6489 H           1 NHV       0.0654
     28 H6         28.0936   50.1431   -0.0985 H           1 NHV       0.2100
     29 H7         27.9707   50.0678   -2.3398 H           1 NHV       0.0675
     30 H8         26.7474   51.3427   -1.1580 H           1 NHV       0.2103
     31 H9         24.5756   49.5858   -3.0668 H           1 NHV       0.2138
     32 H10        28.9834   45.3111   -2.8024 H           1 NHV       0.0663
     33 H11        28.7206   45.7697   -6.6197 H           1 NHV       0.0617
     34 H12        28.5519   44.3111   -5.6266 H           1 NHV       0.0617
     35 H13        30.4851   45.1871   -4.3442 H           1 NHV       0.1774
     36 H14        32.0712   47.0193   -4.4450 H           1 NHV       0.0515
     37 H15        34.0480   47.7995   -5.5912 H           1 NHV       0.0583
     38 H16        34.5782   46.9544   -7.8076 H           1 NHV       0.0505
     39 H17        33.0770   45.3835   -8.9015 H           1 NHV       0.0583
     40 H18        31.0450   44.6769   -7.8034 H           1 NHV       0.0515
     41 H19        26.5038   49.6413   -4.2244 H           1 NHV       0.0858
@<TRIPOS>BOND
     1     1     2   1
     2     2     3   1
     3     3     4   1
     4     3     9   1
     5     4     5   1
     6     4     6   1
     7     6     7   1
     8     6    22   1
     9    22     8   1
    10     9    10   1
    11     9    13   1
    12    10    11   2
    13    11    12   1
    14    11    14   1
    15    12    13   2
    16    13    22   1
    17    14    15   1
    18    15    16   1
    19    16    17  ar
    20    16    21  ar
    21    17    18  ar
    22    18    19  ar
    23    19    20  ar
    24    20    21  ar
    25     1    23   1
    26     2    24   1
    27     2    25   1
    28     3    26   1
    29     4    27   1
    30     5    28   1
    31     6    29   1
    32     7    30   1
    33     8    31   1
    34    10    32   1
    35    14    33   1
    36    14    34   1
    37    15    35   1
    38    17    36   1
    39    18    37   1
    40    19    38   1
    41    20    39   1
    42    21    40   1
    43    22    41   1
@<TRIPOS>SUBSTRUCTURE
     1  NHV      2

