@<TRIPOS>MOLECULE
2vot_ligand_023
    41    43
SMALL
GAST_HUCK
****
This file was generated by PARSER (from files_GN.cpp)

@<TRIPOS>ATOM
      1 O6B        28.7644   46.3526   -6.3222 O.3         1 NHV      -0.3919
      2 C6B        28.2745   47.1355   -5.2343 C.3         1 NHV       0.0768
      3 C5B        28.8841   46.7064   -3.8651 C.3         1 NHV       0.1168
      4 C4B        27.8836   47.0500   -2.7076 C.3         1 NHV       0.1178
      5 O4B        26.6727   46.3038   -2.8132 O.3         1 NHV      -0.3858
      6 C3B        28.5305   46.7970   -1.3155 C.3         1 NHV       0.1252
      7 O3B        27.6170   47.0970   -0.2567 O.3         1 NHV      -0.3839
      8 O2B        29.5535   48.9656   -0.7350 O.3         1 NHV      -0.3700
      9 N1B        30.2015   47.2621   -3.5992 N.pl3       1 NHV      -0.2494
     10 C8B        31.1927   47.5595   -4.4697 C.2         1 NHV       0.0253
     11 C7B        32.2220   48.1744   -3.7601 C.2         1 NHV       0.0014
     12 N2B        31.8393   48.2499   -2.4756 N.2         1 NHV      -0.3297
     13 C1B        30.6373   47.6564   -2.3804 C.2         1 NHV       0.1428
     14 C7         33.3429   48.9533   -4.3181 C.3         1 NHV       0.0480
     15 N1         34.5729   48.2499   -4.5019 N.pl3       1 NHV      -0.3158
     16 C1         35.5699   48.1260   -3.5874 C.ar        1 NHV       0.0390
     17 C6         36.8985   48.0576   -4.0828 C.ar        1 NHV      -0.0444
     18 C5         37.9977   48.0446   -3.2026 C.ar        1 NHV      -0.0737
     19 C4         37.7831   48.0410   -1.8094 C.ar        1 NHV      -0.0751
     20 C3         36.4713   48.0745   -1.3081 C.ar        1 NHV      -0.0737
     21 C2         35.3786   48.1178   -2.1881 C.ar        1 NHV      -0.0444
     22 C20        29.8380   47.6222   -1.1421 C.3         1 NHV       0.1578
     23 H1         28.4211   45.4497   -6.1495 H           1 NHV       0.2095
     24 H2         27.1856   47.0214   -5.2376 H           1 NHV       0.0589
     25 H3         28.5083   48.1867   -5.4288 H           1 NHV       0.0589
     26 H4         29.0075   45.6180   -3.8829 H           1 NHV       0.0699
     27 H5         27.6136   48.1089   -2.7690 H           1 NHV       0.0654
     28 H6         26.8653   45.4026   -2.4788 H           1 NHV       0.2100
     29 H7         28.7807   45.7326   -1.2391 H           1 NHV       0.0675
     30 H8         26.8922   46.4404   -0.3400 H           1 NHV       0.2103
     31 H9         29.4016   49.4977   -1.5459 H           1 NHV       0.2138
     32 H10        31.1635   47.4444   -5.4850 H           1 NHV       0.0663
     33 H11        33.5131   49.8375   -3.6960 H           1 NHV       0.0617
     34 H12        33.0357   49.3297   -5.2959 H           1 NHV       0.0617
     35 H13        34.8410   48.1387   -5.4313 H           1 NHV       0.1774
     36 H14        37.0783   48.0890   -5.0865 H           1 NHV       0.0515
     37 H15        38.9495   48.0705   -3.5699 H           1 NHV       0.0583
     38 H16        38.5715   48.0404   -1.1637 H           1 NHV       0.0505
     39 H17        36.3182   48.0703   -0.2975 H           1 NHV       0.0583
     40 H18        34.4347   48.1123   -1.8004 H           1 NHV       0.0515
     41 H19        30.4368   47.1641   -0.3494 H           1 NHV       0.0858
@<TRIPOS>BOND
     1     1     2   1
     2     2     3   1
     3     3     4   1
     4     3     9   1
     5     4     5   1
     6     4     6   1
     7     6     7   1
     8     6    22   1
     9    22     8   1
    10     9    10   1
    11     9    13   1
    12    10    11   2
    13    11    12   1
    14    11    14   1
    15    12    13   2
    16    13    22   1
    17    14    15   1
    18    15    16   1
    19    16    17  ar
    20    16    21  ar
    21    17    18  ar
    22    18    19  ar
    23    19    20  ar
    24    20    21  ar
    25     1    23   1
    26     2    24   1
    27     2    25   1
    28     3    26   1
    29     4    27   1
    30     5    28   1
    31     6    29   1
    32     7    30   1
    33     8    31   1
    34    10    32   1
    35    14    33   1
    36    14    34   1
    37    15    35   1
    38    17    36   1
    39    18    37   1
    40    19    38   1
    41    20    39   1
    42    21    40   1
    43    22    41   1
@<TRIPOS>SUBSTRUCTURE
     1  NHV      2

