@<TRIPOS>MOLECULE
2vot_ligand_012
    41    43
SMALL
GAST_HUCK
****
This file was generated by PARSER (from files_GN.cpp)

@<TRIPOS>ATOM
      1 O6B        32.8104   50.5416   -8.2547 O.3         1 NHV      -0.3919
      2 C6B        32.3227   49.5574   -7.3421 C.3         1 NHV       0.0768
      3 C5B        31.1935   50.1345   -6.4388 C.3         1 NHV       0.1168
      4 C4B        31.6697   51.2714   -5.4675 C.3         1 NHV       0.1178
      5 O4B        30.5408   52.1062   -5.1555 O.3         1 NHV      -0.3858
      6 C3B        32.3247   50.7164   -4.1608 C.3         1 NHV       0.1252
      7 O3B        33.6156   50.1726   -4.4491 O.3         1 NHV      -0.3839
      8 O2B        32.1953   48.9072   -2.5212 O.3         1 NHV      -0.3700
      9 N1B        30.5552   49.0698   -5.7201 N.pl3       1 NHV      -0.2494
     10 C8B        29.7107   48.1504   -6.2249 C.2         1 NHV       0.0253
     11 C7B        29.3210   47.3039   -5.1915 C.2         1 NHV       0.0014
     12 N2B        29.9277   47.7402   -4.0680 N.2         1 NHV      -0.3297
     13 C1B        30.6838   48.8003   -4.4026 C.2         1 NHV       0.1428
     14 C7         28.4354   46.1288   -5.2908 C.3         1 NHV       0.0480
     15 N1         29.1806   44.9463   -4.9971 N.pl3       1 NHV      -0.3158
     16 C1         29.5448   44.1101   -5.9968 C.ar        1 NHV       0.0390
     17 C6         30.5986   44.4618   -6.8679 C.ar        1 NHV      -0.0444
     18 C5         30.9645   43.6017   -7.9222 C.ar        1 NHV      -0.0737
     19 C4         30.2934   42.3786   -8.0873 C.ar        1 NHV      -0.0751
     20 C3         29.2625   42.0116   -7.1989 C.ar        1 NHV      -0.0737
     21 C2         28.8768   42.8844   -6.1647 C.ar        1 NHV      -0.0444
     22 C20        31.4210   49.6652   -3.4506 C.3         1 NHV       0.1578
     23 H1         33.5258   50.0831   -8.7572 H           1 NHV       0.2095
     24 H2         33.1517   49.1805   -6.7372 H           1 NHV       0.0589
     25 H3         31.9352   48.7250   -7.9342 H           1 NHV       0.0589
     26 H4         30.4556   50.5807   -7.1088 H           1 NHV       0.0699
     27 H5         32.3817   51.9242   -5.9820 H           1 NHV       0.0654
     28 H6         30.3795   52.0109   -4.1884 H           1 NHV       0.2100
     29 H7         32.4937   51.5428   -3.4654 H           1 NHV       0.0675
     30 H8         34.1516   50.9313   -4.7528 H           1 NHV       0.2103
     31 H9         31.7150   48.0547   -2.4071 H           1 NHV       0.2138
     32 H10        29.4081   48.0801   -7.2048 H           1 NHV       0.0663
     33 H11        27.9733   46.1027   -6.2821 H           1 NHV       0.0617
     34 H12        27.6364   46.2214   -4.5642 H           1 NHV       0.0617
     35 H13        29.8471   45.0539   -4.2968 H           1 NHV       0.1774
     36 H14        31.0993   45.3526   -6.7499 H           1 NHV       0.0515
     37 H15        31.7024   43.8723   -8.5661 H           1 NHV       0.0583
     38 H16        30.5593   41.7484   -8.8463 H           1 NHV       0.0505
     39 H17        28.7940   41.1052   -7.3051 H           1 NHV       0.0583
     40 H18        28.1229   42.6179   -5.5361 H           1 NHV       0.0515
     41 H19        30.6633   50.1945   -2.8730 H           1 NHV       0.0858
@<TRIPOS>BOND
     1     1     2   1
     2     2     3   1
     3     3     4   1
     4     3     9   1
     5     4     5   1
     6     4     6   1
     7     6     7   1
     8     6    22   1
     9    22     8   1
    10     9    10   1
    11     9    13   1
    12    10    11   2
    13    11    12   1
    14    11    14   1
    15    12    13   2
    16    13    22   1
    17    14    15   1
    18    15    16   1
    19    16    17  ar
    20    16    21  ar
    21    17    18  ar
    22    18    19  ar
    23    19    20  ar
    24    20    21  ar
    25     1    23   1
    26     2    24   1
    27     2    25   1
    28     3    26   1
    29     4    27   1
    30     5    28   1
    31     6    29   1
    32     7    30   1
    33     8    31   1
    34    10    32   1
    35    14    33   1
    36    14    34   1
    37    15    35   1
    38    17    36   1
    39    18    37   1
    40    19    38   1
    41    20    39   1
    42    21    40   1
    43    22    41   1
@<TRIPOS>SUBSTRUCTURE
     1  NHV      2

