@<TRIPOS>MOLECULE
2vvn_ligand_009
    32    33
SMALL
GAST_HUCK
****
This file was generated by PARSER (from files_GN.cpp)

@<TRIPOS>ATOM
      1 C1          6.0201  -13.1079    4.1219 C.3         1 NHT       0.1369
      2 C2          4.9008  -12.3775    3.3250 C.3         1 NHT       0.0547
      3 C3          5.4230  -11.0958    2.6097 C.3         1 NHT       0.0928
      4 C4          6.7716  -11.3535    1.8901 C.3         1 NHT       0.1098
      5 C5          7.8291  -12.0057    2.8529 C.3         1 NHT       0.1116
      6 C6          9.0397  -11.0812    3.1375 C.3         1 NHT       0.0730
      7 C7          4.9776  -14.5015    2.3071 C.2         1 NHT       0.1594
      8 C10         4.5484  -17.3412   -0.1304 C.3         1 NHT      -0.0438
      9 N2          4.4018  -13.2969    2.3721 N.2         1 NHT      -0.3555
     10 O3          5.6084  -10.0409    3.5563 O.3         1 NHT      -0.3886
     11 O4          6.5821  -12.2265    0.7676 O.3         1 NHT      -0.3866
     12 O5          7.2775  -12.3937    4.1373 O.3         1 NHT      -0.3538
     13 N1          4.5911  -15.3672    1.3405 N.pl3       1 NHT      -0.2802
     14 O6          9.6282  -10.6007    1.9302 O.3         1 NHT      -0.3924
     15 S1          6.2138  -14.7907    3.4833 S.3         1 NHT       0.0009
     16 C9          5.1378  -16.6692    1.1271 C.3         1 NHT       0.0329
     17 H1          5.7122  -13.2084    5.1640 H           1 NHT       0.0757
     18 H2          4.0778  -12.1046    3.9933 H           1 NHT       0.0398
     19 H3          4.6816  -10.7477    1.8821 H           1 NHT       0.0626
     20 H4          7.1279  -10.4034    1.4881 H           1 NHT       0.0646
     21 H5          8.2414  -12.9081    2.3898 H           1 NHT       0.0646
     22 H6          9.8073  -11.6439    3.6782 H           1 NHT       0.0584
     23 H7          8.7391  -10.2304    3.7587 H           1 NHT       0.0584
     24 H8          4.9619  -18.3457   -0.2357 H           1 NHT       0.0250
     25 H9          4.7954  -16.7646   -1.0217 H           1 NHT       0.0250
     26 H10         3.4636  -17.4190   -0.0449 H           1 NHT       0.0250
     27 H11         4.7195   -9.6742    3.7258 H           1 NHT       0.2099
     28 H12         6.2041  -11.6743    0.0520 H           1 NHT       0.2100
     29 H13         3.8788  -15.0734    0.7411 H           1 NHT       0.1939
     30 H14         9.1945   -9.7346    1.7420 H           1 NHT       0.2095
     31 H15         6.2219  -16.5959    1.0120 H           1 NHT       0.0531
     32 H16         4.9189  -17.2993    1.9947 H           1 NHT       0.0531
@<TRIPOS>BOND
     1     1     2   1
     2     1    12   1
     3    15     1   1
     4     2     3   1
     5     9     2   1
     6     3     4   1
     7     3    10   1
     8     5     4   1
     9     4    11   1
    10     5     6   1
    11    12     5   1
    12     6    14   1
    13     7     9   2
    14    13     7   1
    15     7    15   1
    16    16     8   1
    17    13    16   1
    18     1    17   1
    19     2    18   1
    20     3    19   1
    21     4    20   1
    22     5    21   1
    23     6    22   1
    24     6    23   1
    25     8    24   1
    26     8    25   1
    27     8    26   1
    28    10    27   1
    29    11    28   1
    30    13    29   1
    31    14    30   1
    32    16    31   1
    33    16    32   1
@<TRIPOS>SUBSTRUCTURE
     1  NHT      1

