@<TRIPOS>MOLECULE
2vvn_ligand_001
    32    33
SMALL
GAST_HUCK
****
This file was generated by PARSER (from files_GN.cpp)

@<TRIPOS>ATOM
      1 C1          4.7446  -11.4509    2.2224 C.3         1 NHT       0.1369
      2 C2          5.6130  -11.4338    0.9404 C.3         1 NHT       0.0547
      3 C3          7.0470  -10.8781    1.1661 C.3         1 NHT       0.0928
      4 C4          7.6841  -11.4411    2.4633 C.3         1 NHT       0.1098
      5 C5          6.7246  -11.3537    3.6905 C.3         1 NHT       0.1116
      6 C6          6.5909   -9.9337    4.3026 C.3         1 NHT       0.0730
      7 C7          4.5560  -13.5045    0.8876 C.2         1 NHT       0.1594
      8 C10         5.7226  -15.1101   -1.4995 C.3         1 NHT      -0.0438
      9 N2          5.6231  -12.7847    0.5017 N.2         1 NHT      -0.3555
     10 O3          6.9850   -9.4572    1.1926 O.3         1 NHT      -0.3886
     11 O4          8.0109  -12.8122    2.2263 O.3         1 NHT      -0.3866
     12 O5          5.4489  -11.9506    3.3770 O.3         1 NHT      -0.3538
     13 N1          4.3376  -14.8000    0.5676 N.pl3       1 NHT      -0.2802
     14 O6          5.6216   -9.9363    5.3512 O.3         1 NHT      -0.3924
     15 S1          3.4273  -12.6326    1.8726 S.3         1 NHT       0.0009
     16 C9          5.2335  -15.6594   -0.1387 C.3         1 NHT       0.0329
     17 H1          4.3176  -10.4703    2.4253 H           1 NHT       0.0757
     18 H2          5.1146  -10.8338    0.1632 H           1 NHT       0.0398
     19 H3          7.6721  -11.1411    0.3089 H           1 NHT       0.0626
     20 H4          8.6189  -10.9108    2.6719 H           1 NHT       0.0646
     21 H5          7.1563  -11.9774    4.4801 H           1 NHT       0.0646
     22 H6          6.2777   -9.1994    3.5591 H           1 NHT       0.0584
     23 H7          7.5557   -9.6186    4.7104 H           1 NHT       0.0584
     24 H8          6.1864  -15.9164   -2.0758 H           1 NHT       0.0250
     25 H9          6.4682  -14.3263   -1.3571 H           1 NHT       0.0250
     26 H10         4.8881  -14.7024   -2.0722 H           1 NHT       0.0250
     27 H11         7.9070   -9.1469    1.0758 H           1 NHT       0.2099
     28 H12         8.5958  -13.0839    2.9606 H           1 NHT       0.2100
     29 H13         3.5296  -15.2103    0.9185 H           1 NHT       0.1939
     30 H14         5.9963   -9.3535    6.0497 H           1 NHT       0.2095
     31 H15         6.0964  -15.8784    0.4923 H           1 NHT       0.0531
     32 H16         4.7077  -16.6042   -0.3164 H           1 NHT       0.0531
@<TRIPOS>BOND
     1     1     2   1
     2     1    12   1
     3    15     1   1
     4     2     3   1
     5     9     2   1
     6     3     4   1
     7     3    10   1
     8     5     4   1
     9     4    11   1
    10     5     6   1
    11    12     5   1
    12     6    14   1
    13     7     9   2
    14    13     7   1
    15     7    15   1
    16    16     8   1
    17    13    16   1
    18     1    17   1
    19     2    18   1
    20     3    19   1
    21     4    20   1
    22     5    21   1
    23     6    22   1
    24     6    23   1
    25     8    24   1
    26     8    25   1
    27     8    26   1
    28    10    27   1
    29    11    28   1
    30    13    29   1
    31    14    30   1
    32    16    31   1
    33    16    32   1
@<TRIPOS>SUBSTRUCTURE
     1  NHT      1

