@<TRIPOS>MOLECULE
2vvn_ligand_023
    32    33
SMALL
GAST_HUCK
****
This file was generated by PARSER (from files_GN.cpp)

@<TRIPOS>ATOM
      1 C1          7.2838  -10.0975    3.7562 C.3         1 NHT       0.1369
      2 C2          5.7831  -10.3600    4.0584 C.3         1 NHT       0.0547
      3 C3          5.2486  -11.6595    3.3946 C.3         1 NHT       0.0928
      4 C4          5.6813  -11.6855    1.9055 C.3         1 NHT       0.1098
      5 C5          7.2422  -11.5861    1.7811 C.3         1 NHT       0.1116
      6 C6          7.7178  -10.7681    0.5518 C.3         1 NHT       0.0730
      7 C7          6.7162  -10.2191    6.2045 C.2         1 NHT       0.1594
      8 C10         8.0785   -8.5138    8.5399 C.3         1 NHT      -0.0438
      9 N2          5.6250  -10.3965    5.4568 N.2         1 NHT      -0.3555
     10 O3          3.8205  -11.7100    3.4885 O.3         1 NHT      -0.3886
     11 O4          5.1842  -12.8779    1.2871 O.3         1 NHT      -0.3866
     12 O5          7.9084  -11.1432    2.9875 O.3         1 NHT      -0.3538
     13 N1          6.5705  -10.2191    7.5483 N.pl3       1 NHT      -0.2802
     14 O6          7.1365   -9.4686    0.5010 O.3         1 NHT      -0.3924
     15 S1          8.1876   -9.9955    5.3166 S.3         1 NHT       0.0009
     16 C9          7.5671   -9.9704    8.5348 C.3         1 NHT       0.0329
     17 H1          7.4001   -9.1436    3.2377 H           1 NHT       0.0757
     18 H2          5.1939   -9.5196    3.6924 H           1 NHT       0.0398
     19 H3          5.6589  -12.5433    3.9002 H           1 NHT       0.0626
     20 H4          5.2067  -10.8301    1.4090 H           1 NHT       0.0646
     21 H5          7.6240  -12.6001    1.6359 H           1 NHT       0.0646
     22 H6          7.4333  -11.2976   -0.3558 H           1 NHT       0.0584
     23 H7          8.8072  -10.6656    0.5663 H           1 NHT       0.0584
     24 H8          8.6801   -8.3475    9.4352 H           1 NHT       0.0250
     25 H9          7.2353   -7.8169    8.5567 H           1 NHT       0.0250
     26 H10         8.6979   -8.3162    7.6620 H           1 NHT       0.0250
     27 H11         3.5731  -12.6186    3.2039 H           1 NHT       0.2099
     28 H12         5.0733  -12.6622    0.3351 H           1 NHT       0.2100
     29 H13         5.6833  -10.4269    7.8730 H           1 NHT       0.1939
     30 H14         7.8426   -8.8616    0.7994 H           1 NHT       0.2095
     31 H15         7.1017  -10.1521    9.5037 H           1 NHT       0.0531
     32 H16         8.4031  -10.6670    8.4263 H           1 NHT       0.0531
@<TRIPOS>BOND
     1     1     2   1
     2     1    12   1
     3    15     1   1
     4     2     3   1
     5     9     2   1
     6     3     4   1
     7     3    10   1
     8     5     4   1
     9     4    11   1
    10     5     6   1
    11    12     5   1
    12     6    14   1
    13     7     9   2
    14    13     7   1
    15     7    15   1
    16    16     8   1
    17    13    16   1
    18     1    17   1
    19     2    18   1
    20     3    19   1
    21     4    20   1
    22     5    21   1
    23     6    22   1
    24     6    23   1
    25     8    24   1
    26     8    25   1
    27     8    26   1
    28    10    27   1
    29    11    28   1
    30    13    29   1
    31    14    30   1
    32    16    31   1
    33    16    32   1
@<TRIPOS>SUBSTRUCTURE
     1  NHT      1

