@<TRIPOS>MOLECULE
2vvn_ligand_025
    32    33
SMALL
GAST_HUCK
****
This file was generated by PARSER (from files_GN.cpp)

@<TRIPOS>ATOM
      1 C1          7.0791  -17.2117   -1.3113 C.3         1 NHT       0.1369
      2 C2          8.3216  -16.3617   -0.9169 C.3         1 NHT       0.0547
      3 C3          9.2326  -16.0207   -2.1308 C.3         1 NHT       0.0928
      4 C4          8.4210  -15.6007   -3.3891 C.3         1 NHT       0.1098
      5 C5          7.2110  -16.5560   -3.6813 C.3         1 NHT       0.1116
      6 C6          7.3096  -17.2041   -5.0840 C.3         1 NHT       0.0730
      7 C7          6.5265  -15.0259   -0.1815 C.2         1 NHT       0.1594
      8 C10         4.2735  -13.8992    2.0815 C.3         1 NHT      -0.0438
      9 N2          7.8479  -15.1884   -0.2884 N.2         1 NHT      -0.3555
     10 O3         10.0223  -17.1729   -2.4396 O.3         1 NHT      -0.3886
     11 O4          7.9657  -14.2569   -3.2841 O.3         1 NHT      -0.3866
     12 O5          7.0756  -17.6106   -2.6984 O.3         1 NHT      -0.3538
     13 N1          6.0684  -13.9118    0.4315 N.pl3       1 NHT      -0.2802
     14 O6          6.2977  -18.1854   -5.2759 O.3         1 NHT      -0.3924
     15 S1          5.5792  -16.3204   -0.8447 S.3         1 NHT       0.0009
     16 C9          4.7053  -13.5455    0.6459 C.3         1 NHT       0.0329
     17 H1          7.0850  -18.1358   -0.7266 H           1 NHT       0.0757
     18 H2          8.9164  -16.8975   -0.1672 H           1 NHT       0.0398
     19 H3          9.9250  -15.2230   -1.8555 H           1 NHT       0.0626
     20 H4          9.1206  -15.5926   -4.2377 H           1 NHT       0.0646
     21 H5          6.2805  -15.9790   -3.6718 H           1 NHT       0.0646
     22 H6          8.2855  -17.6799   -5.2148 H           1 NHT       0.0584
     23 H7          7.1904  -16.4362   -5.8522 H           1 NHT       0.0584
     24 H8          3.2289  -13.6292    2.2299 H           1 NHT       0.0250
     25 H9          4.8812  -13.3567    2.8090 H           1 NHT       0.0250
     26 H10         4.3852  -14.9705    2.2561 H           1 NHT       0.0250
     27 H11        10.7256  -16.8504   -3.0498 H           1 NHT       0.2099
     28 H12         7.5888  -14.1744   -2.3794 H           1 NHT       0.2100
     29 H13         6.7403  -13.3155    0.7946 H           1 NHT       0.1939
     30 H14         6.7051  -19.0330   -4.9872 H           1 NHT       0.2095
     31 H15         4.6190  -12.4626    0.4992 H           1 NHT       0.0531
     32 H16         4.0319  -14.0324   -0.0626 H           1 NHT       0.0531
@<TRIPOS>BOND
     1     1     2   1
     2     1    12   1
     3    15     1   1
     4     2     3   1
     5     9     2   1
     6     3     4   1
     7     3    10   1
     8     5     4   1
     9     4    11   1
    10     5     6   1
    11    12     5   1
    12     6    14   1
    13     7     9   2
    14    13     7   1
    15     7    15   1
    16    16     8   1
    17    13    16   1
    18     1    17   1
    19     2    18   1
    20     3    19   1
    21     4    20   1
    22     5    21   1
    23     6    22   1
    24     6    23   1
    25     8    24   1
    26     8    25   1
    27     8    26   1
    28    10    27   1
    29    11    28   1
    30    13    29   1
    31    14    30   1
    32    16    31   1
    33    16    32   1
@<TRIPOS>SUBSTRUCTURE
     1  NHT      1

