@<TRIPOS>MOLECULE
2vvn_ligand_040
    32    33
SMALL
GAST_HUCK
****
This file was generated by PARSER (from files_GN.cpp)

@<TRIPOS>ATOM
      1 C1          6.9878  -16.7874   -1.7638 C.3         1 NHT       0.1369
      2 C2          5.6492  -16.5974   -0.9890 C.3         1 NHT       0.0547
      3 C3          4.8054  -17.9081   -0.9167 C.3         1 NHT       0.0928
      4 C4          4.8372  -18.6350   -2.2881 C.3         1 NHT       0.1098
      5 C5          6.3162  -19.0049   -2.6443 C.3         1 NHT       0.1116
      6 C6          6.5784  -19.1464   -4.1679 C.3         1 NHT       0.0730
      7 C7          7.2408  -15.8842    0.5764 C.2         1 NHT       0.1594
      8 C10         7.0597  -16.3962    3.9653 C.3         1 NHT      -0.0438
      9 N2          5.9541  -16.1323    0.3148 N.2         1 NHT      -0.3555
     10 O3          3.4685  -17.5913   -0.5223 O.3         1 NHT      -0.3886
     11 O4          4.0278  -19.8110   -2.2696 O.3         1 NHT      -0.3866
     12 O5          7.3174  -18.1663   -2.0171 O.3         1 NHT      -0.3538
     13 N1          7.7027  -15.4925    1.7835 N.pl3       1 NHT      -0.2802
     14 O6          6.1636  -17.9967   -4.9020 O.3         1 NHT      -0.3924
     15 S1          8.3165  -16.1089   -0.7540 S.3         1 NHT       0.0009
     16 C9          6.9100  -15.2429    2.9531 C.3         1 NHT       0.0329
     17 H1          6.9553  -16.2425   -2.7053 H           1 NHT       0.0757
     18 H2          5.0523  -15.8176   -1.4845 H           1 NHT       0.0398
     19 H3          5.2278  -18.5711   -0.1514 H           1 NHT       0.0626
     20 H4          4.4309  -17.9628   -3.0486 H           1 NHT       0.0646
     21 H5          6.5170  -19.9918   -2.2193 H           1 NHT       0.0646
     22 H6          6.0196  -20.0060   -4.5515 H           1 NHT       0.0584
     23 H7          7.6464  -19.3231   -4.3493 H           1 NHT       0.0584
     24 H8          6.4644  -16.1829    4.8556 H           1 NHT       0.0250
     25 H9          8.1059  -16.5098    4.2600 H           1 NHT       0.0250
     26 H10         6.7097  -17.3333    3.5260 H           1 NHT       0.0250
     27 H11         3.0662  -18.4432   -0.2558 H           1 NHT       0.2099
     28 H12         3.1041  -19.4983   -2.2052 H           1 NHT       0.2100
     29 H13         8.6683  -15.3861    1.8790 H           1 NHT       0.1939
     30 H14         6.8741  -17.3251   -4.7530 H           1 NHT       0.2095
     31 H15         7.2618  -14.3124    3.4133 H           1 NHT       0.0531
     32 H16         5.8513  -15.1190    2.7158 H           1 NHT       0.0531
@<TRIPOS>BOND
     1     1     2   1
     2     1    12   1
     3    15     1   1
     4     2     3   1
     5     9     2   1
     6     3     4   1
     7     3    10   1
     8     5     4   1
     9     4    11   1
    10     5     6   1
    11    12     5   1
    12     6    14   1
    13     7     9   2
    14    13     7   1
    15     7    15   1
    16    16     8   1
    17    13    16   1
    18     1    17   1
    19     2    18   1
    20     3    19   1
    21     4    20   1
    22     5    21   1
    23     6    22   1
    24     6    23   1
    25     8    24   1
    26     8    25   1
    27     8    26   1
    28    10    27   1
    29    11    28   1
    30    13    29   1
    31    14    30   1
    32    16    31   1
    33    16    32   1
@<TRIPOS>SUBSTRUCTURE
     1  NHT      1

