@<TRIPOS>MOLECULE
2vvn_ligand_007
    32    33
SMALL
GAST_HUCK
****
This file was generated by PARSER (from files_GN.cpp)

@<TRIPOS>ATOM
      1 C1          7.2719  -11.6882    1.9220 C.3         1 NHT       0.1369
      2 C2          6.2650  -10.5393    2.1844 C.3         1 NHT       0.0547
      3 C3          4.7887  -10.9529    1.9356 C.3         1 NHT       0.0928
      4 C4          4.4654  -12.3737    2.4770 C.3         1 NHT       0.1098
      5 C5          5.5146  -13.4309    2.0202 C.3         1 NHT       0.1116
      6 C6          5.4471  -13.8938    0.5359 C.3         1 NHT       0.0730
      7 C7          7.6803  -10.4891    4.0322 C.2         1 NHT       0.1594
      8 C10         7.1476  -10.5177    7.5084 C.3         1 NHT      -0.0438
      9 N2          6.4899  -10.1425    3.5191 N.2         1 NHT      -0.3555
     10 O3          4.4299  -10.8364    0.5551 O.3         1 NHT      -0.3886
     11 O4          4.4296  -12.3414    3.9047 O.3         1 NHT      -0.3866
     12 O5          6.8359  -12.9885    2.3876 O.3         1 NHT      -0.3538
     13 N1          8.1048  -10.2244    5.2881 N.pl3       1 NHT      -0.2802
     14 O6          4.1072  -14.0971    0.0997 O.3         1 NHT      -0.3924
     15 S1          8.7290  -11.2873    2.9082 S.3         1 NHT       0.0009
     16 C9          7.3666   -9.5671    6.3184 C.3         1 NHT       0.0329
     17 H1          7.5577  -11.7382    0.8687 H           1 NHT       0.0757
     18 H2          6.5089   -9.6909    1.5403 H           1 NHT       0.0398
     19 H3          4.1341  -10.2485    2.4532 H           1 NHT       0.0626
     20 H4          3.4620  -12.6666    2.1521 H           1 NHT       0.0646
     21 H5          5.3272  -14.3269    2.6174 H           1 NHT       0.0646
     22 H6          5.9823  -14.8453    0.4388 H           1 NHT       0.0584
     23 H7          5.9274  -13.1773   -0.1263 H           1 NHT       0.0584
     24 H8          6.5797  -10.0093    8.2930 H           1 NHT       0.0250
     25 H9          8.1084  -10.8370    7.9194 H           1 NHT       0.0250
     26 H10         6.5881  -11.3927    7.1816 H           1 NHT       0.0250
     27 H11         5.2529  -10.9262    0.0277 H           1 NHT       0.2099
     28 H12         5.3412  -12.1277    4.1905 H           1 NHT       0.2100
     29 H13         9.0057  -10.4837    5.5054 H           1 NHT       0.1939
     30 H14         3.9717  -13.4401   -0.6023 H           1 NHT       0.2095
     31 H15         7.9532   -8.7113    6.6565 H           1 NHT       0.0531
     32 H16         6.3944   -9.2064    5.9726 H           1 NHT       0.0531
@<TRIPOS>BOND
     1     1     2   1
     2     1    12   1
     3    15     1   1
     4     2     3   1
     5     9     2   1
     6     3     4   1
     7     3    10   1
     8     5     4   1
     9     4    11   1
    10     5     6   1
    11    12     5   1
    12     6    14   1
    13     7     9   2
    14    13     7   1
    15     7    15   1
    16    16     8   1
    17    13    16   1
    18     1    17   1
    19     2    18   1
    20     3    19   1
    21     4    20   1
    22     5    21   1
    23     6    22   1
    24     6    23   1
    25     8    24   1
    26     8    25   1
    27     8    26   1
    28    10    27   1
    29    11    28   1
    30    13    29   1
    31    14    30   1
    32    16    31   1
    33    16    32   1
@<TRIPOS>SUBSTRUCTURE
     1  NHT      1

