@<TRIPOS>MOLECULE
2vvn_ligand_015
    32    33
SMALL
GAST_HUCK
****
This file was generated by PARSER (from files_GN.cpp)

@<TRIPOS>ATOM
      1 C1          5.7246  -16.1853   -0.2371 C.3         1 NHT       0.1369
      2 C2          5.3876  -14.6778   -0.3922 C.3         1 NHT       0.0547
      3 C3          5.8120  -13.8146    0.8360 C.3         1 NHT       0.0928
      4 C4          5.4857  -14.5138    2.1794 C.3         1 NHT       0.1098
      5 C5          6.0831  -15.9538    2.1952 C.3         1 NHT       0.1116
      6 C6          5.7760  -16.7242    3.5119 C.3         1 NHT       0.0730
      7 C7          7.1179  -15.0548   -1.9332 C.2         1 NHT       0.1594
      8 C10         8.5870  -16.3667   -4.5954 C.3         1 NHT      -0.0438
      9 N2          6.1073  -14.2688   -1.5392 N.2         1 NHT      -0.3555
     10 O3          5.1772  -12.5307    0.7822 O.3         1 NHT      -0.3886
     11 O4          6.0091  -13.7527    3.2653 O.3         1 NHT      -0.3866
     12 O5          5.5528  -16.7227    1.0883 O.3         1 NHT      -0.3538
     13 N1          7.8774  -14.6637   -2.9746 N.pl3       1 NHT      -0.2802
     14 O6          6.8917  -16.7224    4.4065 O.3         1 NHT      -0.3924
     15 S1          7.3705  -16.4461   -0.9212 S.3         1 NHT       0.0009
     16 C9          9.0067  -15.3536   -3.5109 C.3         1 NHT       0.0329
     17 H1          5.0448  -16.7562   -0.8751 H           1 NHT       0.0757
     18 H2          4.3127  -14.5699   -0.5798 H           1 NHT       0.0398
     19 H3          6.8914  -13.6405    0.7969 H           1 NHT       0.0626
     20 H4          4.4007  -14.5792    2.2976 H           1 NHT       0.0646
     21 H5          7.1720  -15.8935    2.0781 H           1 NHT       0.0646
     22 H6          5.5496  -17.7734    3.2925 H           1 NHT       0.0584
     23 H7          4.9116  -16.3020    4.0332 H           1 NHT       0.0584
     24 H8          9.4678  -16.8470   -5.0218 H           1 NHT       0.0250
     25 H9          8.0523  -15.8543   -5.3971 H           1 NHT       0.0250
     26 H10         7.9383  -17.1351   -4.1785 H           1 NHT       0.0250
     27 H11         5.3136  -12.2056   -0.1371 H           1 NHT       0.2099
     28 H12         5.4161  -12.9768    3.3500 H           1 NHT       0.2100
     29 H13         7.6504  -13.8079   -3.3725 H           1 NHT       0.1939
     30 H14         6.7250  -15.9984    5.0474 H           1 NHT       0.2095
     31 H15         9.6683  -14.6177   -3.9666 H           1 NHT       0.0531
     32 H16         9.5735  -15.8509   -2.7202 H           1 NHT       0.0531
@<TRIPOS>BOND
     1     1     2   1
     2     1    12   1
     3    15     1   1
     4     2     3   1
     5     9     2   1
     6     3     4   1
     7     3    10   1
     8     5     4   1
     9     4    11   1
    10     5     6   1
    11    12     5   1
    12     6    14   1
    13     7     9   2
    14    13     7   1
    15     7    15   1
    16    16     8   1
    17    13    16   1
    18     1    17   1
    19     2    18   1
    20     3    19   1
    21     4    20   1
    22     5    21   1
    23     6    22   1
    24     6    23   1
    25     8    24   1
    26     8    25   1
    27     8    26   1
    28    10    27   1
    29    11    28   1
    30    13    29   1
    31    14    30   1
    32    16    31   1
    33    16    32   1
@<TRIPOS>SUBSTRUCTURE
     1  NHT      1

