@<TRIPOS>MOLECULE
2vvn_ligand_037
    32    33
SMALL
GAST_HUCK
****
This file was generated by PARSER (from files_GN.cpp)

@<TRIPOS>ATOM
      1 C1          6.5786  -14.1934    2.9838 C.3         1 NHT       0.1369
      2 C2          5.8565  -13.3151    1.9295 C.3         1 NHT       0.0547
      3 C3          6.4427  -11.8771    1.8282 C.3         1 NHT       0.0928
      4 C4          6.6424  -11.2559    3.2340 C.3         1 NHT       0.1098
      5 C5          7.5558  -12.1873    4.0922 C.3         1 NHT       0.1116
      6 C6          7.7372  -11.7036    5.5540 C.3         1 NHT       0.0730
      7 C7          7.0093  -14.9127    0.6698 C.2         1 NHT       0.1594
      8 C10         7.3716  -14.5023   -2.5751 C.3         1 NHT      -0.0438
      9 N2          6.0289  -13.9957    0.6957 N.2         1 NHT      -0.3555
     10 O3          5.5804  -11.0531    1.0411 O.3         1 NHT      -0.3886
     11 O4          7.2207   -9.9610    3.0892 O.3         1 NHT      -0.3866
     12 O5          6.9975  -13.5165    4.1863 O.3         1 NHT      -0.3538
     13 N1          7.3398  -15.6487   -0.4090 N.pl3       1 NHT      -0.2802
     14 O6          7.9673  -10.2976    5.6480 O.3         1 NHT      -0.3924
     15 S1          7.9032  -15.0820    2.1435 S.3         1 NHT       0.0009
     16 C9          6.7218  -15.5823   -1.6904 C.3         1 NHT       0.0329
     17 H1          5.8784  -14.9659    3.3117 H           1 NHT       0.0757
     18 H2          4.7928  -13.2576    2.1826 H           1 NHT       0.0398
     19 H3          7.4175  -11.9085    1.3261 H           1 NHT       0.0626
     20 H4          5.6704  -11.1414    3.7248 H           1 NHT       0.0646
     21 H5          8.5397  -12.2400    3.6244 H           1 NHT       0.0646
     22 H6          8.5945  -12.2181    5.9999 H           1 NHT       0.0584
     23 H7          6.8480  -11.9468    6.1406 H           1 NHT       0.0584
     24 H8          6.9008  -14.4931   -3.5594 H           1 NHT       0.0250
     25 H9          8.4377  -14.6991   -2.7024 H           1 NHT       0.0250
     26 H10         7.2434  -13.5171   -2.1190 H           1 NHT       0.0250
     27 H11         5.6779  -11.3664    0.1148 H           1 NHT       0.2099
     28 H12         6.5148   -9.4083    2.6897 H           1 NHT       0.2100
     29 H13         8.0775  -16.2724   -0.3037 H           1 NHT       0.1939
     30 H14         8.1840  -10.1415    6.5952 H           1 NHT       0.2095
     31 H15         6.8473  -16.5565   -2.1735 H           1 NHT       0.0531
     32 H16         5.6490  -15.3957   -1.6060 H           1 NHT       0.0531
@<TRIPOS>BOND
     1     1     2   1
     2     1    12   1
     3    15     1   1
     4     2     3   1
     5     9     2   1
     6     3     4   1
     7     3    10   1
     8     5     4   1
     9     4    11   1
    10     5     6   1
    11    12     5   1
    12     6    14   1
    13     7     9   2
    14    13     7   1
    15     7    15   1
    16    16     8   1
    17    13    16   1
    18     1    17   1
    19     2    18   1
    20     3    19   1
    21     4    20   1
    22     5    21   1
    23     6    22   1
    24     6    23   1
    25     8    24   1
    26     8    25   1
    27     8    26   1
    28    10    27   1
    29    11    28   1
    30    13    29   1
    31    14    30   1
    32    16    31   1
    33    16    32   1
@<TRIPOS>SUBSTRUCTURE
     1  NHT      1

