@<TRIPOS>MOLECULE
2vvn_ligand_004
    32    33
SMALL
GAST_HUCK
****
This file was generated by PARSER (from files_GN.cpp)

@<TRIPOS>ATOM
      1 C1          5.9605  -12.3492    4.2324 C.3         1 NHT       0.1369
      2 C2          5.5488  -11.0471    3.4965 C.3         1 NHT       0.0547
      3 C3          6.2854   -9.8106    4.0808 C.3         1 NHT       0.0928
      4 C4          7.8073  -10.0533    4.2542 C.3         1 NHT       0.1098
      5 C5          8.0730  -11.3617    5.0667 C.3         1 NHT       0.1116
      6 C6          7.8189  -11.2838    6.5952 C.3         1 NHT       0.0730
      7 C7          5.8279  -12.5887    1.7782 C.2         1 NHT       0.1594
      8 C10         4.6483  -14.8752   -0.2096 C.3         1 NHT      -0.0438
      9 N2          5.8131  -11.2927    2.1252 N.2         1 NHT      -0.3555
     10 O3          5.6534   -9.5106    5.3307 O.3         1 NHT      -0.3886
     11 O4          8.4384  -10.1615    2.9765 O.3         1 NHT      -0.3866
     12 O5          7.3735  -12.4680    4.4637 O.3         1 NHT      -0.3538
     13 N1          6.0380  -12.9334    0.4866 N.pl3       1 NHT      -0.2802
     14 O6          7.9886   -9.9745    7.1421 O.3         1 NHT      -0.3924
     15 S1          5.5407  -13.6856    3.0976 S.3         1 NHT       0.0009
     16 C9          6.0560  -14.2575   -0.0454 C.3         1 NHT       0.0329
     17 H1          5.4003  -12.4759    5.1567 H           1 NHT       0.0757
     18 H2          4.4688  -10.8921    3.5853 H           1 NHT       0.0398
     19 H3          6.1313   -8.9483    3.4277 H           1 NHT       0.0626
     20 H4          8.2660   -9.2027    4.7609 H           1 NHT       0.0646
     21 H5          9.1414  -11.5795    4.9460 H           1 NHT       0.0646
     22 H6          8.5139  -11.9493    7.1139 H           1 NHT       0.0584
     23 H7          6.8059  -11.5980    6.8373 H           1 NHT       0.0584
     24 H8          4.7282  -15.8570   -0.6826 H           1 NHT       0.0250
     25 H9          4.0243  -14.2320   -0.8359 H           1 NHT       0.0250
     26 H10         4.1575  -15.0064    0.7528 H           1 NHT       0.0250
     27 H11         6.3705   -9.1712    5.9198 H           1 NHT       0.2099
     28 H12         8.5204   -9.2451    2.6283 H           1 NHT       0.2100
     29 H13         6.2131  -12.2073   -0.1330 H           1 NHT       0.1939
     30 H14         8.8992   -9.7136    6.8956 H           1 NHT       0.2095
     31 H15         6.5143  -14.2042   -1.0360 H           1 NHT       0.0531
     32 H16         6.6776  -14.9015    0.5771 H           1 NHT       0.0531
@<TRIPOS>BOND
     1     1     2   1
     2     1    12   1
     3    15     1   1
     4     2     3   1
     5     9     2   1
     6     3     4   1
     7     3    10   1
     8     5     4   1
     9     4    11   1
    10     5     6   1
    11    12     5   1
    12     6    14   1
    13     7     9   2
    14    13     7   1
    15     7    15   1
    16    16     8   1
    17    13    16   1
    18     1    17   1
    19     2    18   1
    20     3    19   1
    21     4    20   1
    22     5    21   1
    23     6    22   1
    24     6    23   1
    25     8    24   1
    26     8    25   1
    27     8    26   1
    28    10    27   1
    29    11    28   1
    30    13    29   1
    31    14    30   1
    32    16    31   1
    33    16    32   1
@<TRIPOS>SUBSTRUCTURE
     1  NHT      1

