@<TRIPOS>MOLECULE
2vvn_ligand_027
    32    33
SMALL
GAST_HUCK
****
This file was generated by PARSER (from files_GN.cpp)

@<TRIPOS>ATOM
      1 C1          6.7456  -15.2046   -2.5561 C.3         1 NHT       0.1369
      2 C2          5.9353  -16.5306   -2.5752 C.3         1 NHT       0.0547
      3 C3          6.4393  -17.5279   -3.6544 C.3         1 NHT       0.0928
      4 C4          7.9879  -17.6400   -3.6876 C.3         1 NHT       0.1098
      5 C5          8.6930  -16.2364   -3.6487 C.3         1 NHT       0.1116
      6 C6          9.6090  -16.0153   -4.8803 C.3         1 NHT       0.0730
      7 C7          6.7117  -16.4267   -0.3461 C.2         1 NHT       0.1594
      8 C10         6.5374  -15.4077    2.8127 C.3         1 NHT      -0.0438
      9 N2          6.0125  -17.0897   -1.2746 N.2         1 NHT      -0.3555
     10 O3          5.9472  -17.1291   -4.9352 O.3         1 NHT      -0.3886
     11 O4          8.4213  -18.4382   -2.5814 O.3         1 NHT      -0.3866
     12 O5          7.7633  -15.1295   -3.5812 O.3         1 NHT      -0.3538
     13 N1          6.7856  -16.9318    0.9101 N.pl3       1 NHT      -0.2802
     14 O6         10.3787  -14.8251   -4.7410 O.3         1 NHT      -0.3924
     15 S1          7.4173  -14.9417   -0.9002 S.3         1 NHT       0.0009
     16 C9          7.4601  -16.3651    2.0334 C.3         1 NHT       0.0329
     17 H1          6.0677  -14.3676   -2.7360 H           1 NHT       0.0757
     18 H2          4.8835  -16.3186   -2.7752 H           1 NHT       0.0398
     19 H3          6.0128  -18.5189   -3.4640 H           1 NHT       0.0626
     20 H4          8.2660  -18.2002   -4.5871 H           1 NHT       0.0646
     21 H5          9.3388  -16.1815   -2.7657 H           1 NHT       0.0646
     22 H6          9.0016  -15.9346   -5.7820 H           1 NHT       0.0584
     23 H7         10.2934  -16.8560   -4.9995 H           1 NHT       0.0584
     24 H8          7.0605  -15.0128    3.6866 H           1 NHT       0.0250
     25 H9          5.6405  -15.9305    3.1494 H           1 NHT       0.0250
     26 H10         6.2400  -14.5718    2.1788 H           1 NHT       0.0250
     27 H11         5.8504  -16.1533   -4.9007 H           1 NHT       0.2099
     28 H12         9.3744  -18.6095   -2.7426 H           1 NHT       0.2100
     29 H13         6.3046  -17.7591    1.0734 H           1 NHT       0.1939
     30 H14        10.8688  -14.9218   -3.8963 H           1 NHT       0.2095
     31 H15         7.7531  -17.1824    2.6935 H           1 NHT       0.0531
     32 H16         8.3696  -15.8395    1.7399 H           1 NHT       0.0531
@<TRIPOS>BOND
     1     1     2   1
     2     1    12   1
     3    15     1   1
     4     2     3   1
     5     9     2   1
     6     3     4   1
     7     3    10   1
     8     5     4   1
     9     4    11   1
    10     5     6   1
    11    12     5   1
    12     6    14   1
    13     7     9   2
    14    13     7   1
    15     7    15   1
    16    16     8   1
    17    13    16   1
    18     1    17   1
    19     2    18   1
    20     3    19   1
    21     4    20   1
    22     5    21   1
    23     6    22   1
    24     6    23   1
    25     8    24   1
    26     8    25   1
    27     8    26   1
    28    10    27   1
    29    11    28   1
    30    13    29   1
    31    14    30   1
    32    16    31   1
    33    16    32   1
@<TRIPOS>SUBSTRUCTURE
     1  NHT      1

