@<TRIPOS>MOLECULE
2vvn_ligand_042
    32    33
SMALL
GAST_HUCK
****
This file was generated by PARSER (from files_GN.cpp)

@<TRIPOS>ATOM
      1 C1          6.0452  -10.7824    6.1588 C.3         1 NHT       0.1369
      2 C2          7.0988  -10.4414    5.0638 C.3         1 NHT       0.0547
      3 C3          8.4434   -9.9190    5.6511 C.3         1 NHT       0.0928
      4 C4          8.2096   -9.1219    6.9541 C.3         1 NHT       0.1098
      5 C5          7.4846  -10.0324    8.0100 C.3         1 NHT       0.1116
      6 C6          6.6832   -9.2179    9.0627 C.3         1 NHT       0.0730
      7 C7          6.4823  -12.6463    4.5444 C.2         1 NHT       0.1594
      8 C10         6.8592  -16.2713    3.9140 C.3         1 NHT      -0.0438
      9 N2          7.3367  -11.6338    4.3307 N.2         1 NHT      -0.3555
     10 O3          9.1099   -9.0944    4.6897 O.3         1 NHT      -0.3886
     11 O4          9.4236   -8.5679    7.4735 O.3         1 NHT      -0.3866
     12 O5          6.6635  -11.0724    7.4266 O.3         1 NHT      -0.3538
     13 N1          6.7326  -13.8356    3.9669 N.pl3       1 NHT      -0.2802
     14 O6          7.5482   -8.6114   10.0236 O.3         1 NHT      -0.3924
     15 S1          5.1482  -12.2419    5.5841 S.3         1 NHT       0.0009
     16 C9          5.9537  -15.0372    4.1024 C.3         1 NHT       0.0329
     17 H1          5.3417   -9.9559    6.2871 H           1 NHT       0.0757
     18 H2          6.6736   -9.6905    4.3895 H           1 NHT       0.0398
     19 H3          9.0969  -10.7666    5.8874 H           1 NHT       0.0626
     20 H4          7.5660   -8.2746    6.7060 H           1 NHT       0.0646
     21 H5          8.2455  -10.5935    8.5511 H           1 NHT       0.0646
     22 H6          6.0055   -9.8802    9.6112 H           1 NHT       0.0584
     23 H7          6.0798   -8.4362    8.5920 H           1 NHT       0.0584
     24 H8          6.2600  -17.1852    3.9934 H           1 NHT       0.0250
     25 H9          7.6325  -16.2944    4.6899 H           1 NHT       0.0250
     26 H10         7.3414  -16.2523    2.9326 H           1 NHT       0.0250
     27 H11         8.5686   -9.1712    3.8630 H           1 NHT       0.2099
     28 H12         9.5823   -9.0027    8.3365 H           1 NHT       0.2100
     29 H13         7.5828  -13.9166    3.5017 H           1 NHT       0.1939
     30 H14         7.9553   -7.8512    9.5662 H           1 NHT       0.2095
     31 H15         5.4975  -15.1005    5.0941 H           1 NHT       0.0531
     32 H16         5.1627  -15.0383    3.3487 H           1 NHT       0.0531
@<TRIPOS>BOND
     1     1     2   1
     2     1    12   1
     3    15     1   1
     4     2     3   1
     5     9     2   1
     6     3     4   1
     7     3    10   1
     8     5     4   1
     9     4    11   1
    10     5     6   1
    11    12     5   1
    12     6    14   1
    13     7     9   2
    14    13     7   1
    15     7    15   1
    16    16     8   1
    17    13    16   1
    18     1    17   1
    19     2    18   1
    20     3    19   1
    21     4    20   1
    22     5    21   1
    23     6    22   1
    24     6    23   1
    25     8    24   1
    26     8    25   1
    27     8    26   1
    28    10    27   1
    29    11    28   1
    30    13    29   1
    31    14    30   1
    32    16    31   1
    33    16    32   1
@<TRIPOS>SUBSTRUCTURE
     1  NHT      1

