@<TRIPOS>MOLECULE
2vvn_ligand_045
    32    33
SMALL
GAST_HUCK
****
This file was generated by PARSER (from files_GN.cpp)

@<TRIPOS>ATOM
      1 C1          8.4747  -11.2784    6.4122 C.3         1 NHT       0.1369
      2 C2          6.9970  -11.0889    5.9642 C.3         1 NHT       0.0547
      3 C3          6.4348   -9.7179    6.4240 C.3         1 NHT       0.0928
      4 C4          6.8643   -9.4156    7.8812 C.3         1 NHT       0.1098
      5 C5          8.4241   -9.3161    7.9317 C.3         1 NHT       0.1116
      6 C6          9.0288   -9.6531    9.3171 C.3         1 NHT       0.0730
      7 C7          8.0918  -11.5107    3.9509 C.2         1 NHT       0.1594
      8 C10         7.5291  -10.0263    0.9306 C.3         1 NHT      -0.0438
      9 N2          6.9485  -11.1806    4.5590 N.2         1 NHT      -0.3555
     10 O3          5.0189   -9.7260    6.3164 O.3         1 NHT      -0.3886
     11 O4          6.2430   -8.1997    8.3119 O.3         1 NHT      -0.3866
     12 O5          9.0933  -10.0565    6.8769 O.3         1 NHT      -0.3538
     13 N1          8.2541  -11.6058    2.6197 N.pl3       1 NHT      -0.2802
     14 O6          9.0607  -11.0540    9.5502 O.3         1 NHT      -0.3924
     15 S1          9.4280  -11.8444    4.9917 S.3         1 NHT       0.0009
     16 C9          7.2567  -11.3692    1.6304 C.3         1 NHT       0.0329
     17 H1          8.5445  -12.0473    7.1847 H           1 NHT       0.0757
     18 H2          6.3783  -11.8995    6.3724 H           1 NHT       0.0398
     19 H3          6.8188   -8.9308    5.7724 H           1 NHT       0.0626
     20 H4          6.5141  -10.2323    8.5240 H           1 NHT       0.0646
     21 H5          8.6841   -8.2714    7.7278 H           1 NHT       0.0646
     22 H6          8.4552   -9.1693   10.1125 H           1 NHT       0.0584
     23 H7         10.0557   -9.2819    9.3578 H           1 NHT       0.0584
     24 H8          6.7260   -9.8017    0.2295 H           1 NHT       0.0250
     25 H9          8.4752  -10.0690    0.3818 H           1 NHT       0.0250
     26 H10         7.5845   -9.2258    1.6688 H           1 NHT       0.0250
     27 H11         4.7488   -8.8360    6.6115 H           1 NHT       0.2099
     28 H12         6.0713   -8.3215    9.2688 H           1 NHT       0.2100
     29 H13         9.1490  -11.8055    2.3079 H           1 NHT       0.1939
     30 H14         9.5940  -11.1508   10.3641 H           1 NHT       0.2095
     31 H15         7.3013  -12.1802    0.8986 H           1 NHT       0.0531
     32 H16         6.2557  -11.3624    2.0631 H           1 NHT       0.0531
@<TRIPOS>BOND
     1     1     2   1
     2     1    12   1
     3    15     1   1
     4     2     3   1
     5     9     2   1
     6     3     4   1
     7     3    10   1
     8     5     4   1
     9     4    11   1
    10     5     6   1
    11    12     5   1
    12     6    14   1
    13     7     9   2
    14    13     7   1
    15     7    15   1
    16    16     8   1
    17    13    16   1
    18     1    17   1
    19     2    18   1
    20     3    19   1
    21     4    20   1
    22     5    21   1
    23     6    22   1
    24     6    23   1
    25     8    24   1
    26     8    25   1
    27     8    26   1
    28    10    27   1
    29    11    28   1
    30    13    29   1
    31    14    30   1
    32    16    31   1
    33    16    32   1
@<TRIPOS>SUBSTRUCTURE
     1  NHT      1

