@<TRIPOS>MOLECULE
2vvn_ligand_035
    32    33
SMALL
GAST_HUCK
****
This file was generated by PARSER (from files_GN.cpp)

@<TRIPOS>ATOM
      1 C1          5.2582  -14.0924    2.1761 C.3         1 NHT       0.1369
      2 C2          3.9968  -13.7055    1.3663 C.3         1 NHT       0.0547
      3 C3          3.8100  -12.1766    1.1955 C.3         1 NHT       0.0928
      4 C4          4.0421  -11.4366    2.5308 C.3         1 NHT       0.1098
      5 C5          5.4497  -11.8051    3.0895 C.3         1 NHT       0.1116
      6 C6          5.7436  -11.1553    4.4628 C.3         1 NHT       0.0730
      7 C7          5.4551  -14.6622   -0.2202 C.2         1 NHT       0.1594
      8 C10         7.5505  -14.4083   -2.8383 C.3         1 NHT      -0.0438
      9 N2          4.1940  -14.3156    0.0905 N.2         1 NHT      -0.3555
     10 O3          2.4969  -11.9045    0.7141 O.3         1 NHT      -0.3886
     11 O4          3.9226  -10.0258    2.3472 O.3         1 NHT      -0.3866
     12 O5          5.5541  -13.2442    3.2869 O.3         1 NHT      -0.3538
     13 N1          5.7204  -15.1746   -1.4391 N.pl3       1 NHT      -0.2802
     14 O6          7.1458  -11.2130    4.7463 O.3         1 NHT      -0.3924
     15 S1          6.6168  -14.2353    1.0006 S.3         1 NHT       0.0009
     16 C9          6.9920  -15.5548   -1.9686 C.3         1 NHT       0.0329
     17 H1          5.0973  -15.0916    2.5899 H           1 NHT       0.0757
     18 H2          3.1105  -14.1278    1.8551 H           1 NHT       0.0398
     19 H3          4.5206  -11.7933    0.4613 H           1 NHT       0.0626
     20 H4          3.2834  -11.7500    3.2758 H           1 NHT       0.0646
     21 H5          6.2159  -11.4666    2.3802 H           1 NHT       0.0646
     22 H6          5.2027  -11.6917    5.2559 H           1 NHT       0.0584
     23 H7          5.4416  -10.1049    4.4814 H           1 NHT       0.0584
     24 H8          8.5292  -14.6758   -3.2351 H           1 NHT       0.0250
     25 H9          7.6536  -13.5187   -2.2232 H           1 NHT       0.0250
     26 H10         6.8715  -14.1944   -3.6661 H           1 NHT       0.0250
     27 H11         2.5993  -11.1778    0.0576 H           1 NHT       0.2099
     28 H12         3.0490   -9.8946    1.9492 H           1 NHT       0.2100
     29 H13         4.9763  -15.2050   -2.0408 H           1 NHT       0.1939
     30 H14         7.5183  -10.4661    4.2166 H           1 NHT       0.2095
     31 H15         7.7280  -15.7950   -1.1993 H           1 NHT       0.0531
     32 H16         6.8465  -16.4601   -2.5772 H           1 NHT       0.0531
@<TRIPOS>BOND
     1     1     2   1
     2     1    12   1
     3    15     1   1
     4     2     3   1
     5     9     2   1
     6     3     4   1
     7     3    10   1
     8     5     4   1
     9     4    11   1
    10     5     6   1
    11    12     5   1
    12     6    14   1
    13     7     9   2
    14    13     7   1
    15     7    15   1
    16    16     8   1
    17    13    16   1
    18     1    17   1
    19     2    18   1
    20     3    19   1
    21     4    20   1
    22     5    21   1
    23     6    22   1
    24     6    23   1
    25     8    24   1
    26     8    25   1
    27     8    26   1
    28    10    27   1
    29    11    28   1
    30    13    29   1
    31    14    30   1
    32    16    31   1
    33    16    32   1
@<TRIPOS>SUBSTRUCTURE
     1  NHT      1

