@<TRIPOS>MOLECULE
2vvn_ligand_043
    32    33
SMALL
GAST_HUCK
****
This file was generated by PARSER (from files_GN.cpp)

@<TRIPOS>ATOM
      1 C1          5.5767  -13.5008    1.5584 C.3         1 NHT       0.1369
      2 C2          6.9310  -12.9249    1.0554 C.3         1 NHT       0.0547
      3 C3          7.1993  -11.4727    1.5502 C.3         1 NHT       0.0928
      4 C4          5.8878  -10.6464    1.5307 C.3         1 NHT       0.1098
      5 C5          4.7912  -11.3268    2.4164 C.3         1 NHT       0.1116
      6 C6          3.3395  -11.0654    1.9356 C.3         1 NHT       0.0730
      7 C7          7.5695  -14.9308    2.1003 C.2         1 NHT       0.1594
      8 C10         7.9412  -18.1559    2.1612 C.3         1 NHT      -0.0438
      9 N2          7.9540  -13.8000    1.4915 N.2         1 NHT      -0.3555
     10 O3          8.1984  -10.8506    0.7367 O.3         1 NHT      -0.3886
     11 O4          6.1469   -9.3165    1.9826 O.3         1 NHT      -0.3866
     12 O5          5.0118  -12.7408    2.6410 O.3         1 NHT      -0.3538
     13 N1          8.5136  -15.7864    2.5614 N.pl3       1 NHT      -0.2802
     14 O6          2.9646  -11.8796    0.8250 O.3         1 NHT      -0.3924
     15 S1          5.8543  -15.1701    2.1800 S.3         1 NHT       0.0009
     16 C9          8.2760  -17.0528    3.1845 C.3         1 NHT       0.0329
     17 H1          4.8573  -13.5551    0.7370 H           1 NHT       0.0757
     18 H2          6.9245  -12.9264   -0.0396 H           1 NHT       0.0398
     19 H3          7.5729  -11.4994    2.5822 H           1 NHT       0.0626
     20 H4          5.5419  -10.5794    0.4961 H           1 NHT       0.0646
     21 H5          4.8672  -10.8845    3.4138 H           1 NHT       0.0646
     22 H6          3.2226  -10.0148    1.6601 H           1 NHT       0.0584
     23 H7          2.6512  -11.2786    2.7538 H           1 NHT       0.0584
     24 H8          7.8273  -19.1131    2.6722 H           1 NHT       0.0250
     25 H9          8.7440  -18.2448    1.4246 H           1 NHT       0.0250
     26 H10         7.0096  -17.9281    1.6398 H           1 NHT       0.0250
     27 H11         8.3098   -9.9383    1.0869 H           1 NHT       0.2099
     28 H12         6.4953   -9.4185    2.8940 H           1 NHT       0.2100
     29 H13         9.4385  -15.4997    2.4771 H           1 NHT       0.1939
     30 H14         3.6157  -11.7101    0.1203 H           1 NHT       0.2095
     31 H15         9.1888  -17.3391    3.7137 H           1 NHT       0.0531
     32 H16         7.4784  -16.9682    3.9285 H           1 NHT       0.0531
@<TRIPOS>BOND
     1     1     2   1
     2     1    12   1
     3    15     1   1
     4     2     3   1
     5     9     2   1
     6     3     4   1
     7     3    10   1
     8     5     4   1
     9     4    11   1
    10     5     6   1
    11    12     5   1
    12     6    14   1
    13     7     9   2
    14    13     7   1
    15     7    15   1
    16    16     8   1
    17    13    16   1
    18     1    17   1
    19     2    18   1
    20     3    19   1
    21     4    20   1
    22     5    21   1
    23     6    22   1
    24     6    23   1
    25     8    24   1
    26     8    25   1
    27     8    26   1
    28    10    27   1
    29    11    28   1
    30    13    29   1
    31    14    30   1
    32    16    31   1
    33    16    32   1
@<TRIPOS>SUBSTRUCTURE
     1  NHT      1

