@<TRIPOS>MOLECULE
2vvn_ligand_039
    32    33
SMALL
GAST_HUCK
****
This file was generated by PARSER (from files_GN.cpp)

@<TRIPOS>ATOM
      1 C1          7.0315  -12.8185    2.7547 C.3         1 NHT       0.1369
      2 C2          6.2932  -12.8879    4.1235 C.3         1 NHT       0.0547
      3 C3          5.0546  -11.9449    4.1889 C.3         1 NHT       0.0928
      4 C4          4.2155  -11.9682    2.8804 C.3         1 NHT       0.1098
      5 C5          5.1017  -11.7728    1.5954 C.3         1 NHT       0.1116
      6 C6          4.7728  -10.4774    0.7850 C.3         1 NHT       0.0730
      7 C7          6.2118  -15.1085    3.3442 C.2         1 NHT       0.1594
      8 C10         5.1628  -18.5742    4.3049 C.3         1 NHT      -0.0438
      9 N2          5.9195  -14.2381    4.3196 N.2         1 NHT      -0.3555
     10 O3          5.4764  -10.6091    4.4675 O.3         1 NHT      -0.3886
     11 O4          3.4729  -13.1890    2.8057 O.3         1 NHT      -0.3866
     12 O5          6.5217  -11.7866    1.8807 O.3         1 NHT      -0.3538
     13 N1          5.9183  -16.4239    3.4018 N.pl3       1 NHT      -0.2802
     14 O6          5.9198   -9.7002    0.4544 O.3         1 NHT      -0.3924
     15 S1          6.9911  -14.4466    1.9592 S.3         1 NHT       0.0009
     16 C9          5.2393  -17.0466    4.4937 C.3         1 NHT       0.0329
     17 H1          8.0808  -12.5868    2.9308 H           1 NHT       0.0757
     18 H2          6.9801  -12.6207    4.9308 H           1 NHT       0.0398
     19 H3          4.4209  -12.2361    5.0326 H           1 NHT       0.0626
     20 H4          3.4594  -11.1881    2.9704 H           1 NHT       0.0646
     21 H5          4.9242  -12.6175    0.9186 H           1 NHT       0.0646
     22 H6          4.0971   -9.8123    1.3159 H           1 NHT       0.0584
     23 H7          4.2790  -10.7500   -0.1561 H           1 NHT       0.0584
     24 H8          4.6131  -19.0193    5.1356 H           1 NHT       0.0250
     25 H9          6.1681  -18.9979    4.2805 H           1 NHT       0.0250
     26 H10         4.6512  -18.8190    3.3733 H           1 NHT       0.0250
     27 H11         6.0348  -10.3356    3.7068 H           1 NHT       0.2099
     28 H12         4.1376  -13.8988    2.6758 H           1 NHT       0.2100
     29 H13         6.1815  -16.9788    2.6462 H           1 NHT       0.1939
     30 H14         6.5102  -10.3404   -0.0097 H           1 NHT       0.2095
     31 H15         5.7629  -16.8251    5.4258 H           1 NHT       0.0531
     32 H16         4.2292  -16.6387    4.5666 H           1 NHT       0.0531
@<TRIPOS>BOND
     1     1     2   1
     2     1    12   1
     3    15     1   1
     4     2     3   1
     5     9     2   1
     6     3     4   1
     7     3    10   1
     8     5     4   1
     9     4    11   1
    10     5     6   1
    11    12     5   1
    12     6    14   1
    13     7     9   2
    14    13     7   1
    15     7    15   1
    16    16     8   1
    17    13    16   1
    18     1    17   1
    19     2    18   1
    20     3    19   1
    21     4    20   1
    22     5    21   1
    23     6    22   1
    24     6    23   1
    25     8    24   1
    26     8    25   1
    27     8    26   1
    28    10    27   1
    29    11    28   1
    30    13    29   1
    31    14    30   1
    32    16    31   1
    33    16    32   1
@<TRIPOS>SUBSTRUCTURE
     1  NHT      1

