@<TRIPOS>MOLECULE
2vvn_ligand_018
    32    33
SMALL
GAST_HUCK
****
This file was generated by PARSER (from files_GN.cpp)

@<TRIPOS>ATOM
      1 C1          8.3507  -15.6873   -2.3336 C.3         1 NHT       0.1369
      2 C2          7.0073  -15.7588   -3.0922 C.3         1 NHT       0.0547
      3 C3          6.7345  -17.1607   -3.7164 C.3         1 NHT       0.0928
      4 C4          7.9910  -17.7109   -4.4411 C.3         1 NHT       0.1098
      5 C5          9.1879  -17.7194   -3.4416 C.3         1 NHT       0.1116
      6 C6         10.4861  -18.2514   -4.0802 C.3         1 NHT       0.0730
      7 C7          6.4020  -15.5622   -0.8418 C.2         1 NHT       0.1594
      8 C10         3.8660  -13.9761    1.3254 C.3         1 NHT      -0.0438
      9 N2          6.0129  -15.4397   -2.1295 N.2         1 NHT      -0.3555
     10 O3          5.6028  -17.1299   -4.5922 O.3         1 NHT      -0.3886
     11 O4          7.7214  -19.0206   -4.9488 O.3         1 NHT      -0.3866
     12 O5          9.4455  -16.3838   -2.9652 O.3         1 NHT      -0.3538
     13 N1          5.6141  -15.2839    0.2204 N.pl3       1 NHT      -0.2802
     14 O6         11.4601  -18.5122   -3.0708 O.3         1 NHT      -0.3924
     15 S1          8.0162  -16.1785   -0.6270 S.3         1 NHT       0.0009
     16 C9          4.2599  -14.8525    0.1238 C.3         1 NHT       0.0329
     17 H1          8.6546  -14.6425   -2.2930 H           1 NHT       0.0757
     18 H2          7.0044  -14.9982   -3.8799 H           1 NHT       0.0398
     19 H3          6.4829  -17.8696   -2.9137 H           1 NHT       0.0626
     20 H4          8.2336  -17.0678   -5.2913 H           1 NHT       0.0646
     21 H5          8.9566  -18.3679   -2.5882 H           1 NHT       0.0646
     22 H6         10.8958  -17.5144   -4.7905 H           1 NHT       0.0584
     23 H7         10.3007  -19.1909   -4.6096 H           1 NHT       0.0584
     24 H8          2.8112  -13.7091    1.2610 H           1 NHT       0.0250
     25 H9          4.4586  -13.0634    1.3256 H           1 NHT       0.0250
     26 H10         4.0367  -14.5117    2.2567 H           1 NHT       0.0250
     27 H11         5.3065  -16.1887   -4.6195 H           1 NHT       0.2099
     28 H12         7.5400  -19.5642   -4.1498 H           1 NHT       0.2100
     29 H13         5.9895  -15.4086    1.0965 H           1 NHT       0.1939
     30 H14        11.7012  -17.6253   -2.7117 H           1 NHT       0.2095
     31 H15         4.0992  -14.2651   -0.7881 H           1 NHT       0.0531
     32 H16         3.6072  -15.7295    0.0800 H           1 NHT       0.0531
@<TRIPOS>BOND
     1     1     2   1
     2     1    12   1
     3    15     1   1
     4     2     3   1
     5     9     2   1
     6     3     4   1
     7     3    10   1
     8     5     4   1
     9     4    11   1
    10     5     6   1
    11    12     5   1
    12     6    14   1
    13     7     9   2
    14    13     7   1
    15     7    15   1
    16    16     8   1
    17    13    16   1
    18     1    17   1
    19     2    18   1
    20     3    19   1
    21     4    20   1
    22     5    21   1
    23     6    22   1
    24     6    23   1
    25     8    24   1
    26     8    25   1
    27     8    26   1
    28    10    27   1
    29    11    28   1
    30    13    29   1
    31    14    30   1
    32    16    31   1
    33    16    32   1
@<TRIPOS>SUBSTRUCTURE
     1  NHT      1

