@<TRIPOS>MOLECULE
2vvn_ligand_026
    32    33
SMALL
GAST_HUCK
****
This file was generated by PARSER (from files_GN.cpp)

@<TRIPOS>ATOM
      1 C1          8.0476   -9.7403    6.0867 C.3         1 NHT       0.1369
      2 C2          6.5218   -9.8679    5.8533 C.3         1 NHT       0.0547
      3 C3          6.0768  -11.3314    5.5667 C.3         1 NHT       0.0928
      4 C4          7.0780  -12.0150    4.5931 C.3         1 NHT       0.1098
      5 C5          8.5336  -11.9602    5.1732 C.3         1 NHT       0.1116
      6 C6          9.6146  -11.7672    4.0688 C.3         1 NHT       0.0730
      7 C7          6.6568   -8.7786    7.9379 C.2         1 NHT       0.1594
      8 C10         7.4015   -8.3777   11.1112 C.3         1 NHT      -0.0438
      9 N2          5.8803   -9.3159    6.9898 N.2         1 NHT      -0.3555
     10 O3          4.7563  -11.3666    5.0199 O.3         1 NHT      -0.3886
     11 O4          6.7119  -13.3705    4.3219 O.3         1 NHT      -0.3866
     12 O5          8.7050  -11.0132    6.2508 O.3         1 NHT      -0.3538
     13 N1          6.1081   -8.1490    9.0093 N.pl3       1 NHT      -0.2802
     14 O6         10.9458  -11.8747    4.5869 O.3         1 NHT      -0.3924
     15 S1          8.3572   -8.8687    7.6283 S.3         1 NHT       0.0009
     16 C9          6.7903   -7.4344   10.0443 C.3         1 NHT       0.0329
     17 H1          8.5178   -9.1803    5.2750 H           1 NHT       0.0757
     18 H2          6.2478   -9.2568    4.9920 H           1 NHT       0.0398
     19 H3          6.0601  -11.8994    6.5003 H           1 NHT       0.0626
     20 H4          7.0475  -11.4678    3.6418 H           1 NHT       0.0646
     21 H5          8.7363  -12.9231    5.6551 H           1 NHT       0.0646
     22 H6          9.4958  -10.7966    3.5985 H           1 NHT       0.0584
     23 H7          9.4921  -12.5307    3.2989 H           1 NHT       0.0584
     24 H8          7.9488   -7.7778   11.8499 H           1 NHT       0.0250
     25 H9          8.0905   -9.0973   10.6578 H           1 NHT       0.0250
     26 H10         6.5916   -8.9237   11.6246 H           1 NHT       0.0250
     27 H11         4.8089  -10.8646    4.1820 H           1 NHT       0.2099
     28 H12         7.4746  -13.7468    3.8266 H           1 NHT       0.2100
     29 H13         5.1337   -8.1249    9.0452 H           1 NHT       0.1939
     30 H14        10.8807  -12.4724    5.3745 H           1 NHT       0.2095
     31 H15         7.5629   -6.7912    9.6242 H           1 NHT       0.0531
     32 H16         6.0505   -6.8018   10.5416 H           1 NHT       0.0531
@<TRIPOS>BOND
     1     1     2   1
     2     1    12   1
     3    15     1   1
     4     2     3   1
     5     9     2   1
     6     3     4   1
     7     3    10   1
     8     5     4   1
     9     4    11   1
    10     5     6   1
    11    12     5   1
    12     6    14   1
    13     7     9   2
    14    13     7   1
    15     7    15   1
    16    16     8   1
    17    13    16   1
    18     1    17   1
    19     2    18   1
    20     3    19   1
    21     4    20   1
    22     5    21   1
    23     6    22   1
    24     6    23   1
    25     8    24   1
    26     8    25   1
    27     8    26   1
    28    10    27   1
    29    11    28   1
    30    13    29   1
    31    14    30   1
    32    16    31   1
    33    16    32   1
@<TRIPOS>SUBSTRUCTURE
     1  NHT      1

