@<TRIPOS>MOLECULE
2vvn_ligand_038
    32    33
SMALL
GAST_HUCK
****
This file was generated by PARSER (from files_GN.cpp)

@<TRIPOS>ATOM
      1 C1          6.5641  -16.2708   -1.6859 C.3         1 NHT       0.1369
      2 C2          7.5857  -16.2785   -0.5128 C.3         1 NHT       0.0547
      3 C3          9.0592  -16.3560   -1.0130 C.3         1 NHT       0.0928
      4 C4          9.1800  -17.3357   -2.2130 C.3         1 NHT       0.1098
      5 C5          8.2176  -16.9146   -3.3784 C.3         1 NHT       0.1116
      6 C6          7.6091  -18.1148   -4.1532 C.3         1 NHT       0.0730
      7 C7          6.3568  -14.3153   -0.1402 C.2         1 NHT       0.1594
      8 C10         7.0823  -11.0239    1.0734 C.3         1 NHT      -0.0438
      9 N2          7.3814  -15.0937    0.2376 N.2         1 NHT      -0.3555
     10 O3          9.9189  -16.7613    0.0528 O.3         1 NHT      -0.3886
     11 O4         10.5329  -17.3977   -2.6677 O.3         1 NHT      -0.3866
     12 O5          7.1794  -16.0017   -2.9578 O.3         1 NHT      -0.3538
     13 N1          6.0439  -13.1136    0.3851 N.pl3       1 NHT      -0.2802
     14 O6          6.4653  -17.7232   -4.9131 O.3         1 NHT      -0.3924
     15 S1          5.3783  -14.9446   -1.4150 S.3         1 NHT       0.0009
     16 C9          6.7157  -12.4699    1.4649 C.3         1 NHT       0.0329
     17 H1          6.0148  -17.2148   -1.7328 H           1 NHT       0.0757
     18 H2          7.3779  -17.1304    0.1403 H           1 NHT       0.0398
     19 H3          9.3898  -15.3646   -1.3449 H           1 NHT       0.0626
     20 H4          8.9199  -18.3350   -1.8537 H           1 NHT       0.0646
     21 H5          8.7980  -16.3425   -4.1060 H           1 NHT       0.0646
     22 H6          7.2974  -18.8997   -3.4607 H           1 NHT       0.0584
     23 H7          8.3542  -18.5325   -4.8347 H           1 NHT       0.0584
     24 H8          7.5936  -10.5292    1.9024 H           1 NHT       0.0250
     25 H9          6.1820  -10.4561    0.8283 H           1 NHT       0.0250
     26 H10         7.7470  -11.0272    0.2075 H           1 NHT       0.0250
     27 H11         9.9237  -16.0088    0.6823 H           1 NHT       0.2099
     28 H12        10.7724  -16.4754   -2.9014 H           1 NHT       0.2100
     29 H13         5.3179  -12.6358   -0.0448 H           1 NHT       0.1939
     30 H14         6.7975  -17.0597   -5.5559 H           1 NHT       0.2095
     31 H15         6.0578  -12.4589    2.3367 H           1 NHT       0.0531
     32 H16         7.6325  -13.0014    1.7334 H           1 NHT       0.0531
@<TRIPOS>BOND
     1     1     2   1
     2     1    12   1
     3    15     1   1
     4     2     3   1
     5     9     2   1
     6     3     4   1
     7     3    10   1
     8     5     4   1
     9     4    11   1
    10     5     6   1
    11    12     5   1
    12     6    14   1
    13     7     9   2
    14    13     7   1
    15     7    15   1
    16    16     8   1
    17    13    16   1
    18     1    17   1
    19     2    18   1
    20     3    19   1
    21     4    20   1
    22     5    21   1
    23     6    22   1
    24     6    23   1
    25     8    24   1
    26     8    25   1
    27     8    26   1
    28    10    27   1
    29    11    28   1
    30    13    29   1
    31    14    30   1
    32    16    31   1
    33    16    32   1
@<TRIPOS>SUBSTRUCTURE
     1  NHT      1

