@<TRIPOS>MOLECULE
2vvn_ligand_021
    32    33
SMALL
GAST_HUCK
****
This file was generated by PARSER (from files_GN.cpp)

@<TRIPOS>ATOM
      1 C1          5.8685  -16.7403   -2.4839 C.3         1 NHT       0.1369
      2 C2          6.3452  -15.3000   -2.1717 C.3         1 NHT       0.0547
      3 C3          6.4142  -14.9595   -0.6585 C.3         1 NHT       0.0928
      4 C4          6.9518  -16.1356    0.2029 C.3         1 NHT       0.1098
      5 C5          6.3210  -17.5113   -0.1701 C.3         1 NHT       0.1116
      6 C6          4.9136  -17.8179    0.4197 C.3         1 NHT       0.0730
      7 C7          7.8424  -16.0831   -3.7789 C.2         1 NHT       0.1594
      8 C10        10.9548  -15.8641   -3.0108 C.3         1 NHT      -0.0438
      9 N2          7.6119  -15.2009   -2.7953 N.2         1 NHT      -0.3555
     10 O3          5.1457  -14.5361   -0.1642 O.3         1 NHT      -0.3886
     11 O4          8.3724  -16.2096    0.0511 O.3         1 NHT      -0.3866
     12 O5          6.4026  -17.7431   -1.5915 O.3         1 NHT      -0.3538
     13 N1          8.9939  -16.1673   -4.4865 N.pl3       1 NHT      -0.2802
     14 O6          3.8158  -17.1566   -0.1825 O.3         1 NHT      -0.3924
     15 S1          6.5125  -17.1388   -4.1216 S.3         1 NHT       0.0009
     16 C9         10.1606  -15.3797   -4.2439 C.3         1 NHT       0.0329
     17 H1          4.7844  -16.8036   -2.5221 H           1 NHT       0.0757
     18 H2          5.6827  -14.5830   -2.6627 H           1 NHT       0.0398
     19 H3          7.0713  -14.0986   -0.5207 H           1 NHT       0.0626
     20 H4          6.7764  -15.9225    1.2602 H           1 NHT       0.0646
     21 H5          6.9720  -18.2671    0.2774 H           1 NHT       0.0646
     22 H6          4.8958  -17.5816    1.4864 H           1 NHT       0.0584
     23 H7          4.7205  -18.8895    0.3078 H           1 NHT       0.0584
     24 H8         11.8454  -15.2482   -2.8759 H           1 NHT       0.0250
     25 H9         11.2627  -16.9020   -3.1550 H           1 NHT       0.0250
     26 H10        10.3505  -15.7950   -2.1061 H           1 NHT       0.0250
     27 H11         4.9339  -13.7025   -0.6356 H           1 NHT       0.2099
     28 H12         8.5247  -16.4367   -0.8907 H           1 NHT       0.2100
     29 H13         9.0274  -16.8097   -5.2095 H           1 NHT       0.1939
     30 H14         3.8946  -16.2257    0.0677 H           1 NHT       0.2095
     31 H15        10.8075  -15.4521   -5.1220 H           1 NHT       0.0531
     32 H16         9.8936  -14.3272   -4.1158 H           1 NHT       0.0531
@<TRIPOS>BOND
     1     1     2   1
     2     1    12   1
     3    15     1   1
     4     2     3   1
     5     9     2   1
     6     3     4   1
     7     3    10   1
     8     5     4   1
     9     4    11   1
    10     5     6   1
    11    12     5   1
    12     6    14   1
    13     7     9   2
    14    13     7   1
    15     7    15   1
    16    16     8   1
    17    13    16   1
    18     1    17   1
    19     2    18   1
    20     3    19   1
    21     4    20   1
    22     5    21   1
    23     6    22   1
    24     6    23   1
    25     8    24   1
    26     8    25   1
    27     8    26   1
    28    10    27   1
    29    11    28   1
    30    13    29   1
    31    14    30   1
    32    16    31   1
    33    16    32   1
@<TRIPOS>SUBSTRUCTURE
     1  NHT      1

