@<TRIPOS>MOLECULE
2vvn_ligand_011
    32    33
SMALL
GAST_HUCK
****
This file was generated by PARSER (from files_GN.cpp)

@<TRIPOS>ATOM
      1 C1          5.8810  -13.0994    3.2948 C.3         1 NHT       0.1369
      2 C2          6.4010  -13.0608    1.8373 C.3         1 NHT       0.0547
      3 C3          6.9137  -11.6605    1.4100 C.3         1 NHT       0.0928
      4 C4          7.7718  -10.9653    2.5046 C.3         1 NHT       0.1098
      5 C5          7.1124  -11.0480    3.9153 C.3         1 NHT       0.1116
      6 C6          5.9507  -10.0397    4.1316 C.3         1 NHT       0.0730
      7 C7          7.2879  -15.0270    2.7013 C.2         1 NHT       0.1594
      8 C10         9.5510  -17.8440    3.6583 C.3         1 NHT      -0.0438
      9 N2          7.4043  -14.0561    1.7846 N.2         1 NHT      -0.3555
     10 O3          5.7884  -10.8512    1.0658 O.3         1 NHT      -0.3886
     11 O4          9.0815  -11.5396    2.5523 O.3         1 NHT      -0.3866
     12 O5          6.7375  -12.4072    4.2312 O.3         1 NHT      -0.3538
     13 N1          8.2165  -16.0044    2.7574 N.pl3       1 NHT      -0.2802
     14 O6          5.6653   -9.8681    5.5160 O.3         1 NHT      -0.3924
     15 S1          5.9181  -14.8424    3.7544 S.3         1 NHT       0.0009
     16 C9          8.2096  -17.0872    3.6865 C.3         1 NHT       0.0329
     17 H1          4.8568  -12.7272    3.3660 H           1 NHT       0.0757
     18 H2          5.6044  -13.3705    1.1519 H           1 NHT       0.0398
     19 H3          7.5083  -11.7650    0.4991 H           1 NHT       0.0626
     20 H4          7.9159   -9.9172    2.2277 H           1 NHT       0.0646
     21 H5          7.8845  -10.7771    4.6418 H           1 NHT       0.0646
     22 H6          5.0384  -10.3773    3.6417 H           1 NHT       0.0584
     23 H7          6.2223   -9.0676    3.7157 H           1 NHT       0.0584
     24 H8          9.5255  -18.6673    4.3747 H           1 NHT       0.0250
     25 H9         10.3658  -17.1690    3.9300 H           1 NHT       0.0250
     26 H10         9.7409  -18.2486    2.6622 H           1 NHT       0.0250
     27 H11         5.8775  -10.6813    0.1044 H           1 NHT       0.2099
     28 H12         8.9883  -12.4298    2.9562 H           1 NHT       0.2100
     29 H13         8.9569  -15.9498    2.1312 H           1 NHT       0.1939
     30 H14         6.4753   -9.4652    5.8986 H           1 NHT       0.2095
     31 H15         8.0504  -16.7104    4.7001 H           1 NHT       0.0531
     32 H16         7.3970  -17.7726    3.4339 H           1 NHT       0.0531
@<TRIPOS>BOND
     1     1     2   1
     2     1    12   1
     3    15     1   1
     4     2     3   1
     5     9     2   1
     6     3     4   1
     7     3    10   1
     8     5     4   1
     9     4    11   1
    10     5     6   1
    11    12     5   1
    12     6    14   1
    13     7     9   2
    14    13     7   1
    15     7    15   1
    16    16     8   1
    17    13    16   1
    18     1    17   1
    19     2    18   1
    20     3    19   1
    21     4    20   1
    22     5    21   1
    23     6    22   1
    24     6    23   1
    25     8    24   1
    26     8    25   1
    27     8    26   1
    28    10    27   1
    29    11    28   1
    30    13    29   1
    31    14    30   1
    32    16    31   1
    33    16    32   1
@<TRIPOS>SUBSTRUCTURE
     1  NHT      1

