@<TRIPOS>MOLECULE
2vvn_ligand_041
    32    33
SMALL
GAST_HUCK
****
This file was generated by PARSER (from files_GN.cpp)

@<TRIPOS>ATOM
      1 C1          5.4430  -13.6725    0.6266 C.3         1 NHT       0.1369
      2 C2          6.5328  -14.7100    0.9944 C.3         1 NHT       0.0547
      3 C3          6.8042  -14.7904    2.5231 C.3         1 NHT       0.0928
      4 C4          6.9032  -13.3723    3.1468 C.3         1 NHT       0.1098
      5 C5          5.6147  -12.5626    2.8141 C.3         1 NHT       0.1116
      6 C6          5.6013  -11.1353    3.4198 C.3         1 NHT       0.0730
      7 C7          4.7040  -15.9800    0.3017 C.2         1 NHT       0.1594
      8 C10         4.8219  -18.3884   -2.0459 C.3         1 NHT      -0.0438
      9 N2          6.0324  -15.9453    0.5137 N.2         1 NHT      -0.3555
     10 O3          7.9953  -15.5435    2.7510 O.3         1 NHT      -0.3886
     11 O4          7.0794  -13.4713    4.5574 O.3         1 NHT      -0.3866
     12 O5          5.4731  -12.4449    1.3830 O.3         1 NHT      -0.3538
     13 N1          4.0177  -17.0615   -0.1299 N.pl3       1 NHT      -0.2802
     14 O6          6.6459  -10.3160    2.8937 O.3         1 NHT      -0.3924
     15 S1          3.8591  -14.5259    0.7115 S.3         1 NHT       0.0009
     16 C9          4.5946  -18.3077   -0.5165 C.3         1 NHT       0.0329
     17 H1          5.5876  -13.3899   -0.4177 H           1 NHT       0.0757
     18 H2          7.4583  -14.4665    0.4657 H           1 NHT       0.0398
     19 H3          5.9812  -15.3224    3.0153 H           1 NHT       0.0626
     20 H4          7.7726  -12.8524    2.7308 H           1 NHT       0.0646
     21 H5          4.7439  -13.0920    3.2187 H           1 NHT       0.0646
     22 H6          5.7174  -11.1911    4.5068 H           1 NHT       0.0584
     23 H7          4.6406  -10.6556    3.2114 H           1 NHT       0.0584
     24 H8          5.2845  -19.3489   -2.2994 H           1 NHT       0.0250
     25 H9          5.4836  -17.5761   -2.3775 H           1 NHT       0.0250
     26 H10         3.8622  -18.3069   -2.5716 H           1 NHT       0.0250
     27 H11         7.9395  -15.8622    3.6786 H           1 NHT       0.2099
     28 H12         7.9584  -13.8848    4.6604 H           1 NHT       0.2100
     29 H13         3.0490  -16.9933   -0.1675 H           1 NHT       0.1939
     30 H14         6.4955  -10.3075    1.9235 H           1 NHT       0.2095
     31 H15         5.5399  -18.4808    0.0147 H           1 NHT       0.0531
     32 H16         3.8989  -19.1069   -0.2287 H           1 NHT       0.0531
@<TRIPOS>BOND
     1     1     2   1
     2     1    12   1
     3    15     1   1
     4     2     3   1
     5     9     2   1
     6     3     4   1
     7     3    10   1
     8     5     4   1
     9     4    11   1
    10     5     6   1
    11    12     5   1
    12     6    14   1
    13     7     9   2
    14    13     7   1
    15     7    15   1
    16    16     8   1
    17    13    16   1
    18     1    17   1
    19     2    18   1
    20     3    19   1
    21     4    20   1
    22     5    21   1
    23     6    22   1
    24     6    23   1
    25     8    24   1
    26     8    25   1
    27     8    26   1
    28    10    27   1
    29    11    28   1
    30    13    29   1
    31    14    30   1
    32    16    31   1
    33    16    32   1
@<TRIPOS>SUBSTRUCTURE
     1  NHT      1

