@<TRIPOS>MOLECULE
2vw5_ligand_024
    78    79
SMALL
GAST_HUCK
****
This file was generated by PARSER (from files_GN.cpp)

@<TRIPOS>ATOM
      1 O37        46.5313   -8.2607   40.9345 O.2         1 BC6      -0.3848
      2 C21        45.5088   -7.8446   40.4121 C.2         1 BC6       0.2138
      3 C20        45.2081   -8.2909   39.1563 C.2         1 BC6       0.0175
      4 C36        46.1037   -7.8517   38.0802 C.3         1 BC6      -0.0331
      5 C19        44.1283   -9.0938   39.0080 C.2         1 BC6      -0.0677
      6 C18        43.6249   -9.7317   37.7960 C.3         1 BC6      -0.0250
      7 C17        42.0917   -9.9770   37.7709 C.3         1 BC6      -0.0362
      8 C16        41.4441  -10.8629   38.8923 C.3         1 BC6      -0.0026
      9 C35        42.1381  -12.2532   38.9899 C.3         1 BC6      -0.0578
     10 N22        44.7166   -7.1156   41.1953 N.am        1 BC6      -0.2407
     11 C3         43.5355   -6.4885   40.9062 C.ar        1 BC6       0.0494
     12 C4         42.6183   -6.3270   41.9590 C.ar        1 BC6      -0.0212
     13 C5         41.4155   -5.6237   41.7598 C.ar        1 BC6       0.0678
     14 O36        40.5568   -5.4353   42.7890 O.3         1 BC6      -0.3387
     15 C6         41.1239   -5.0641   40.5043 C.ar        1 BC6      -0.0476
     16 C1         42.0383   -5.1833   39.4362 C.ar        1 BC6      -0.0648
     17 C2         43.2350   -5.9050   39.6569 C.ar        1 BC6      -0.0516
     18 C7         41.8509   -4.4174   38.1750 C.3         1 BC6      -0.0222
     19 C8         41.5030   -5.2321   36.8812 C.3         1 BC6      -0.0322
     20 C25        42.6379   -6.1864   36.4190 C.3         1 BC6      -0.0605
     21 C9         40.1208   -5.9658   37.0138 C.3         1 BC6      -0.0197
     22 C10        39.5961   -6.7132   35.7420 C.3         1 BC6       0.0859
     23 O26        39.7920   -5.9438   34.5308 O.3         1 BC6      -0.3771
     24 C27        39.3900   -4.5527   34.4351 C.3         1 BC6       0.0369
     25 C11        38.1532   -7.3116   35.8602 C.3         1 BC6       0.0868
     26 O28        37.2127   -6.2444   35.8135 O.3         1 BC6      -0.3877
     27 C12        37.8308   -8.1743   37.1292 C.3         1 BC6      -0.0094
     28 C29        36.4209   -8.8258   37.0224 C.3         1 BC6      -0.0567
     29 C13        38.7724   -9.2634   37.3853 C.2         1 BC6      -0.1009
     30 C14        39.2244   -9.6878   38.5896 C.2         1 BC6      -0.0506
     31 C30        39.0776   -8.8849   39.8105 C.3         1 BC6      -0.0376
     32 C15        39.8977  -10.9990   38.6889 C.3         1 BC6       0.1158
     33 O31        39.3111  -11.7769   39.7547 O.3         1 BC6      -0.2488
     34 C32        37.9989  -12.0728   39.9592 C.2         1 BC6       0.3192
     35 O33        37.0181  -11.6160   39.1416 O.2         1 BC6      -0.3776
     36 N34        37.6408  -12.7867   41.0339 N.am        1 BC6      -0.2762
     37 H1         45.8527   -8.2444   37.0985 H           1 BC6       0.0348
     38 H2         47.1283   -8.1590   38.2980 H           1 BC6       0.0348
     39 H3         46.0864   -6.7659   37.9990 H           1 BC6       0.0348
     40 H4         43.6302   -9.3329   39.8371 H           1 BC6       0.0638
     41 H5         44.1335  -10.6826   37.6688 H           1 BC6       0.0437
     42 H6         43.8509   -9.1283   36.9169 H           1 BC6       0.0437
     43 H7         41.8480  -10.4227   36.8038 H           1 BC6       0.0295
     44 H8         41.6254   -8.9933   37.7944 H           1 BC6       0.0295
     45 H9         41.5942  -10.3740   39.8580 H           1 BC6       0.0350
     46 H10        41.5678  -12.9477   39.6101 H           1 BC6       0.0235
     47 H11        43.1233  -12.1516   39.4483 H           1 BC6       0.0235
     48 H12        42.2613  -12.6979   38.0002 H           1 BC6       0.0235
     49 H13        45.0074   -7.0438   42.1179 H           1 BC6       0.2240
     50 H14        42.8248   -6.7162   42.8812 H           1 BC6       0.0366
     51 H15        41.0741   -5.5921   43.6069 H           1 BC6       0.2475
     52 H16        40.2608   -4.5282   40.3853 H           1 BC6       0.0358
     53 H17        43.9301   -5.9319   38.9167 H           1 BC6       0.0351
     54 H18        42.7632   -3.8492   37.9761 H           1 BC6       0.0424
     55 H19        41.0660   -3.6645   38.3059 H           1 BC6       0.0424
     56 H20        41.3920   -4.4829   36.0810 H           1 BC6       0.0321
     57 H21        42.4300   -6.5887   35.4292 H           1 BC6       0.0234
     58 H22        42.7384   -7.0077   37.1163 H           1 BC6       0.0234
     59 H23        43.5767   -5.6469   36.3583 H           1 BC6       0.0234
     60 H24        39.3667   -5.2315   37.3120 H           1 BC6       0.0295
     61 H25        40.2005   -6.6863   37.8267 H           1 BC6       0.0295
     62 H26        40.2496   -7.5789   35.6119 H           1 BC6       0.0623
     63 H27        39.8378   -4.1389   33.5236 H           1 BC6       0.0524
     64 H28        39.7393   -3.9602   35.2874 H           1 BC6       0.0524
     65 H29        38.2991   -4.4536   34.3409 H           1 BC6       0.0524
     66 H30        37.9795   -7.9174   34.9680 H           1 BC6       0.0637
     67 H31        37.4138   -5.6979   36.5997 H           1 BC6       0.2101
     68 H32        37.8049   -7.4880   37.9736 H           1 BC6       0.0398
     69 H33        36.1553   -9.3273   37.9560 H           1 BC6       0.0247
     70 H34        36.3808   -9.5543   36.2070 H           1 BC6       0.0247
     71 H35        35.6599   -8.0743   36.8333 H           1 BC6       0.0247
     72 H36        38.9663   -9.8352   36.5917 H           1 BC6       0.0246
     73 H37        38.0226   -8.6791   40.0094 H           1 BC6       0.0376
     74 H38        39.6159   -7.9388   39.7132 H           1 BC6       0.0376
     75 H39        39.4759   -9.3869   40.6952 H           1 BC6       0.0376
     76 H40        39.7443  -11.5835   37.7813 H           1 BC6       0.0799
     77 H41        36.7014  -12.9608   41.2049 H           1 BC6       0.1831
     78 H42        38.3165  -13.1228   41.6447 H           1 BC6       0.1831
@<TRIPOS>BOND
     1     1     2   2
     2     2     3   1
     3     2    10  am
     4     3     4   1
     5     3     5   2
     6     5     6   1
     7     6     7   1
     8     7     8   1
     9     8     9   1
    10     8    32   1
    11    10    11   1
    12    11    12  ar
    13    11    17  ar
    14    12    13  ar
    15    13    14   1
    16    13    15  ar
    17    15    16  ar
    18    16    17  ar
    19    16    18   1
    20    18    19   1
    21    19    20   1
    22    19    21   1
    23    21    22   1
    24    22    23   1
    25    22    25   1
    26    23    24   1
    27    25    26   1
    28    25    27   1
    29    27    28   1
    30    27    29   1
    31    29    30   2
    32    30    31   1
    33    30    32   1
    34    32    33   1
    35    33    34   1
    36    34    35   2
    37    34    36  am
    38     4    37   1
    39     4    38   1
    40     4    39   1
    41     5    40   1
    42     6    41   1
    43     6    42   1
    44     7    43   1
    45     7    44   1
    46     8    45   1
    47     9    46   1
    48     9    47   1
    49     9    48   1
    50    10    49   1
    51    12    50   1
    52    14    51   1
    53    15    52   1
    54    17    53   1
    55    18    54   1
    56    18    55   1
    57    19    56   1
    58    20    57   1
    59    20    58   1
    60    20    59   1
    61    21    60   1
    62    21    61   1
    63    22    62   1
    64    24    63   1
    65    24    64   1
    66    24    65   1
    67    25    66   1
    68    26    67   1
    69    27    68   1
    70    28    69   1
    71    28    70   1
    72    28    71   1
    73    29    72   1
    74    31    73   1
    75    31    74   1
    76    31    75   1
    77    32    76   1
    78    36    77   1
    79    36    78   1
@<TRIPOS>SUBSTRUCTURE
     1  BC6      2

