@<TRIPOS>MOLECULE
2vw5_ligand_011
    78    79
SMALL
GAST_HUCK
****
This file was generated by PARSER (from files_GN.cpp)

@<TRIPOS>ATOM
      1 O37        36.7097   -8.2930   34.1821 O.2         1 BC6      -0.3848
      2 C21        37.4035   -8.1209   35.1758 C.2         1 BC6       0.2138
      3 C20        37.8131   -9.2442   35.8395 C.2         1 BC6       0.0175
      4 C36        36.7663  -10.0689   36.4453 C.3         1 BC6      -0.0331
      5 C19        39.1268   -9.5618   35.8118 C.2         1 BC6      -0.0677
      6 C18        39.7346  -10.8115   36.2532 C.3         1 BC6      -0.0250
      7 C17        41.2922  -10.8016   36.2253 C.3         1 BC6      -0.0362
      8 C16        41.9874  -10.6846   34.8210 C.3         1 BC6      -0.0026
      9 C35        41.8510  -12.0255   34.0410 C.3         1 BC6      -0.0578
     10 N22        37.8036   -6.8698   35.3547 N.am        1 BC6      -0.2407
     11 C3         38.6444   -6.3178   36.2807 C.ar        1 BC6       0.0494
     12 C4         39.4716   -5.2684   35.8265 C.ar        1 BC6      -0.0212
     13 C5         40.3428   -4.6052   36.7081 C.ar        1 BC6       0.0678
     14 O36        41.1642   -3.6209   36.2663 O.3         1 BC6      -0.3387
     15 C6         40.3709   -4.9707   38.0635 C.ar        1 BC6      -0.0476
     16 C1         39.5622   -6.0260   38.5546 C.ar        1 BC6      -0.0648
     17 C2         38.6977   -6.6859   37.6454 C.ar        1 BC6      -0.0516
     18 C7         39.6675   -6.4500   39.9856 C.3         1 BC6      -0.0222
     19 C8         40.5559   -7.7121   40.2577 C.3         1 BC6      -0.0322
     20 C25        39.8787   -9.0093   39.7448 C.3         1 BC6      -0.0605
     21 C9         42.0025   -7.5167   39.6952 C.3         1 BC6      -0.0197
     22 C10        43.0238   -8.6843   39.8778 C.3         1 BC6       0.0859
     23 O26        42.9391   -9.3096   41.1813 O.3         1 BC6      -0.3771
     24 C27        43.1532   -8.5560   42.3856 C.3         1 BC6       0.0369
     25 C11        44.4756   -8.3320   39.3864 C.3         1 BC6       0.0868
     26 O28        44.9988   -7.2653   40.1827 O.3         1 BC6      -0.3877
     27 C12        44.5992   -7.9412   37.8611 C.3         1 BC6      -0.0094
     28 C29        46.0457   -7.5182   37.4669 C.3         1 BC6      -0.0567
     29 C13        44.1669   -9.0252   36.9645 C.2         1 BC6      -0.1009
     30 C14        43.7218   -8.9724   35.6798 C.2         1 BC6      -0.0506
     31 C30        43.4001   -7.7154   34.9998 C.3         1 BC6      -0.0376
     32 C15        43.4970  -10.2459   34.9434 C.3         1 BC6       0.1158
     33 O31        44.2329  -10.2609   33.7008 O.3         1 BC6      -0.2488
     34 C32        43.9150   -9.8998   32.4268 C.2         1 BC6       0.3192
     35 O33        42.6896   -9.4491   32.0783 O.2         1 BC6      -0.3776
     36 N34        44.8554   -9.9852   31.4754 N.am        1 BC6      -0.2762
     37 H1         37.1469  -10.9445   36.9680 H           1 BC6       0.0348
     38 H2         36.0700  -10.4200   35.6797 H           1 BC6       0.0348
     39 H3         36.2081   -9.4744   37.1718 H           1 BC6       0.0348
     40 H4         39.7488   -8.8887   35.4258 H           1 BC6       0.0638
     41 H5         39.3536  -11.6325   35.6429 H           1 BC6       0.0437
     42 H6         39.4416  -11.0076   37.2869 H           1 BC6       0.0437
     43 H7         41.6599  -11.7021   36.7223 H           1 BC6       0.0295
     44 H8         41.5900   -9.9668   36.8565 H           1 BC6       0.0295
     45 H9         41.4715   -9.9249   34.2308 H           1 BC6       0.0350
     46 H10        42.2865  -11.9486   33.0448 H           1 BC6       0.0235
     47 H11        40.8033  -12.2976   33.9159 H           1 BC6       0.0235
     48 H12        42.3532  -12.8339   34.5732 H           1 BC6       0.0235
     49 H13        37.5265   -6.2589   34.6552 H           1 BC6       0.2240
     50 H14        39.4487   -4.9841   34.8432 H           1 BC6       0.0366
     51 H15        41.5056   -3.9280   35.3970 H           1 BC6       0.2475
     52 H16        41.0111   -4.4808   38.6946 H           1 BC6       0.0358
     53 H17        38.0770   -7.4219   37.9856 H           1 BC6       0.0351
     54 H18        38.6634   -6.6153   40.3812 H           1 BC6       0.0424
     55 H19        40.0798   -5.6259   40.5730 H           1 BC6       0.0424
     56 H20        40.6382   -7.8092   41.3440 H           1 BC6       0.0321
     57 H21        40.3951   -9.8919   40.1226 H           1 BC6       0.0234
     58 H22        39.8982   -9.0378   38.6579 H           1 BC6       0.0234
     59 H23        38.8410   -9.0599   40.0776 H           1 BC6       0.0234
     60 H24        42.4258   -6.6103   40.1419 H           1 BC6       0.0295
     61 H25        41.9092   -7.3440   38.6225 H           1 BC6       0.0295
     62 H26        42.6807   -9.4821   39.2239 H           1 BC6       0.0623
     63 H27        42.8405   -9.1776   43.2246 H           1 BC6       0.0524
     64 H28        42.5684   -7.6357   42.4061 H           1 BC6       0.0524
     65 H29        44.2100   -8.3242   42.5110 H           1 BC6       0.0524
     66 H30        45.1079   -9.2059   39.5593 H           1 BC6       0.0637
     67 H31        45.6400   -7.6875   40.8025 H           1 BC6       0.2101
     68 H32        43.9686   -7.0583   37.7231 H           1 BC6       0.0398
     69 H33        46.1218   -7.3327   36.3931 H           1 BC6       0.0247
     70 H34        46.7623   -8.2902   37.7405 H           1 BC6       0.0247
     71 H35        46.3279   -6.5976   37.9744 H           1 BC6       0.0247
     72 H36        44.2719   -9.9283   37.3553 H           1 BC6       0.0246
     73 H37        43.4896   -6.8241   35.6118 H           1 BC6       0.0376
     74 H38        42.3738   -7.7401   34.6347 H           1 BC6       0.0376
     75 H39        44.0664   -7.5683   34.1532 H           1 BC6       0.0376
     76 H40        43.9822  -11.0633   35.4847 H           1 BC6       0.0799
     77 H41        44.6565   -9.7140   30.5645 H           1 BC6       0.1831
     78 H42        45.7443  -10.3029   31.6965 H           1 BC6       0.1831
@<TRIPOS>BOND
     1     1     2   2
     2     2     3   1
     3     2    10  am
     4     3     4   1
     5     3     5   2
     6     5     6   1
     7     6     7   1
     8     7     8   1
     9     8     9   1
    10     8    32   1
    11    10    11   1
    12    11    12  ar
    13    11    17  ar
    14    12    13  ar
    15    13    14   1
    16    13    15  ar
    17    15    16  ar
    18    16    17  ar
    19    16    18   1
    20    18    19   1
    21    19    20   1
    22    19    21   1
    23    21    22   1
    24    22    23   1
    25    22    25   1
    26    23    24   1
    27    25    26   1
    28    25    27   1
    29    27    28   1
    30    27    29   1
    31    29    30   2
    32    30    31   1
    33    30    32   1
    34    32    33   1
    35    33    34   1
    36    34    35   2
    37    34    36  am
    38     4    37   1
    39     4    38   1
    40     4    39   1
    41     5    40   1
    42     6    41   1
    43     6    42   1
    44     7    43   1
    45     7    44   1
    46     8    45   1
    47     9    46   1
    48     9    47   1
    49     9    48   1
    50    10    49   1
    51    12    50   1
    52    14    51   1
    53    15    52   1
    54    17    53   1
    55    18    54   1
    56    18    55   1
    57    19    56   1
    58    20    57   1
    59    20    58   1
    60    20    59   1
    61    21    60   1
    62    21    61   1
    63    22    62   1
    64    24    63   1
    65    24    64   1
    66    24    65   1
    67    25    66   1
    68    26    67   1
    69    27    68   1
    70    28    69   1
    71    28    70   1
    72    28    71   1
    73    29    72   1
    74    31    73   1
    75    31    74   1
    76    31    75   1
    77    32    76   1
    78    36    77   1
    79    36    78   1
@<TRIPOS>SUBSTRUCTURE
     1  BC6      2

