@<TRIPOS>MOLECULE
2vw5_ligand_005
    78    79
SMALL
GAST_HUCK
****
This file was generated by PARSER (from files_GN.cpp)

@<TRIPOS>ATOM
      1 O37        42.8898  -14.2175   36.3464 O.2         1 BC6      -0.3848
      2 C21        42.9462  -13.0032   36.2419 C.2         1 BC6       0.2138
      3 C20        42.8073  -12.4848   34.9884 C.2         1 BC6       0.0175
      4 C36        43.8843  -12.7273   34.0384 C.3         1 BC6      -0.0331
      5 C19        41.6558  -11.7997   34.7039 C.2         1 BC6      -0.0677
      6 C18        41.1923  -11.3423   33.4047 C.3         1 BC6      -0.0250
      7 C17        40.0406  -10.2873   33.4554 C.3         1 BC6      -0.0362
      8 C16        38.6966  -10.7238   34.1467 C.3         1 BC6      -0.0026
      9 C35        37.8682  -11.6463   33.2068 C.3         1 BC6      -0.0578
     10 N22        42.9096  -12.3403   37.3974 N.am        1 BC6      -0.2407
     11 C3         43.0356  -11.0078   37.6689 C.ar        1 BC6       0.0494
     12 C4         42.5474  -10.5463   38.9067 C.ar        1 BC6      -0.0212
     13 C5         42.7677   -9.2131   39.3161 C.ar        1 BC6       0.0678
     14 O36        42.3428   -8.7998   40.5368 O.3         1 BC6      -0.3387
     15 C6         43.4733   -8.3326   38.4866 C.ar        1 BC6      -0.0476
     16 C1         43.9887   -8.7669   37.2402 C.ar        1 BC6      -0.0648
     17 C2         43.7660  -10.1079   36.8546 C.ar        1 BC6      -0.0516
     18 C7         44.7554   -7.8453   36.3533 C.3         1 BC6      -0.0222
     19 C8         43.9681   -7.3085   35.1073 C.3         1 BC6      -0.0322
     20 C25        43.7583   -8.4031   34.0246 C.3         1 BC6      -0.0605
     21 C9         42.6463   -6.6010   35.5383 C.3         1 BC6      -0.0197
     22 C10        41.7012   -6.0624   34.4152 C.3         1 BC6       0.0859
     23 O26        42.3925   -5.3457   33.3601 O.3         1 BC6      -0.3771
     24 C27        43.1975   -4.1919   33.6540 C.3         1 BC6       0.0369
     25 C11        40.4411   -5.3108   34.9574 C.3         1 BC6       0.0868
     26 O28        40.8422   -4.1682   35.7224 O.3         1 BC6      -0.3877
     27 C12        39.4171   -6.1662   35.8032 C.3         1 BC6      -0.0094
     28 C29        38.2328   -5.2963   36.3041 C.3         1 BC6      -0.0567
     29 C13        38.8293   -7.2944   35.0760 C.2         1 BC6      -0.1009
     30 C14        38.6113   -8.5611   35.5150 C.2         1 BC6      -0.0506
     31 C30        39.1496   -9.0306   36.7910 C.3         1 BC6      -0.0376
     32 C15        37.8471   -9.5101   34.6674 C.3         1 BC6       0.1158
     33 O31        36.6872  -10.0591   35.3387 O.3         1 BC6      -0.2488
     34 C32        36.0330   -9.7479   36.4707 C.2         1 BC6       0.3192
     35 O33        36.5014   -8.8093   37.3387 O.2         1 BC6      -0.3776
     36 N34        34.9241  -10.4113   36.8109 N.am        1 BC6      -0.2762
     37 H1         43.6595  -12.4180   33.0180 H           1 BC6       0.0348
     38 H2         44.1292  -13.7894   34.0047 H           1 BC6       0.0348
     39 H3         44.7807  -12.1895   34.3575 H           1 BC6       0.0348
     40 H4         41.0603  -11.6168   35.4727 H           1 BC6       0.0638
     41 H5         40.8743  -12.2061   32.8165 H           1 BC6       0.0437
     42 H6         42.0108  -10.8599   32.8673 H           1 BC6       0.0437
     43 H7         39.8162   -9.9644   32.4367 H           1 BC6       0.0295
     44 H8         40.4580   -9.4191   33.9623 H           1 BC6       0.0295
     45 H9         38.9189  -11.3287   35.0219 H           1 BC6       0.0350
     46 H10        36.9689  -12.0121   33.7099 H           1 BC6       0.0235
     47 H11        38.4577  -12.5175   32.9178 H           1 BC6       0.0235
     48 H12        37.5706  -11.1007   32.3102 H           1 BC6       0.0235
     49 H13        42.7790  -12.9019   38.1776 H           1 BC6       0.2240
     50 H14        42.0500  -11.1833   39.5360 H           1 BC6       0.0366
     51 H15        43.0265   -9.1491   41.1496 H           1 BC6       0.2475
     52 H16        43.6271   -7.3689   38.7966 H           1 BC6       0.0358
     53 H17        44.2024  -10.4468   36.0038 H           1 BC6       0.0351
     54 H18        45.6686   -8.3498   36.0263 H           1 BC6       0.0424
     55 H19        45.0907   -6.9819   36.9343 H           1 BC6       0.0424
     56 H20        44.6160   -6.5557   34.6453 H           1 BC6       0.0321
     57 H21        43.4593   -7.9529   33.0767 H           1 BC6       0.0234
     58 H22        42.9780   -9.0954   34.3366 H           1 BC6       0.0234
     59 H23        44.6790   -8.9622   33.8508 H           1 BC6       0.0234
     60 H24        42.9101   -5.7745   36.2002 H           1 BC6       0.0295
     61 H25        42.0610   -7.3127   36.1250 H           1 BC6       0.0295
     62 H26        41.3177   -6.9452   33.9045 H           1 BC6       0.0623
     63 H27        43.7175   -3.8992   32.7416 H           1 BC6       0.0524
     64 H28        43.9485   -4.4012   34.4114 H           1 BC6       0.0524
     65 H29        42.5826   -3.3558   33.9650 H           1 BC6       0.0524
     66 H30        39.9100   -4.9131   34.0887 H           1 BC6       0.0637
     67 H31        41.1337   -4.5088   36.5961 H           1 BC6       0.2101
     68 H32        39.9472   -6.5048   36.6964 H           1 BC6       0.0398
     69 H33        37.5454   -5.9142   36.8843 H           1 BC6       0.0247
     70 H34        37.6877   -4.8589   35.4622 H           1 BC6       0.0247
     71 H35        38.5878   -4.4916   36.9501 H           1 BC6       0.0247
     72 H36        38.4519   -7.0590   34.1884 H           1 BC6       0.0246
     73 H37        38.8214   -8.3959   37.6147 H           1 BC6       0.0376
     74 H38        40.2411   -9.0188   36.7467 H           1 BC6       0.0376
     75 H39        38.8416  -10.0515   37.0272 H           1 BC6       0.0376
     76 H40        37.4284   -9.0082   33.7919 H           1 BC6       0.0799
     77 H41        34.4618  -10.1956   37.6350 H           1 BC6       0.1831
     78 H42        34.5598  -11.0860   36.2131 H           1 BC6       0.1831
@<TRIPOS>BOND
     1     1     2   2
     2     2     3   1
     3     2    10  am
     4     3     4   1
     5     3     5   2
     6     5     6   1
     7     6     7   1
     8     7     8   1
     9     8     9   1
    10     8    32   1
    11    10    11   1
    12    11    12  ar
    13    11    17  ar
    14    12    13  ar
    15    13    14   1
    16    13    15  ar
    17    15    16  ar
    18    16    17  ar
    19    16    18   1
    20    18    19   1
    21    19    20   1
    22    19    21   1
    23    21    22   1
    24    22    23   1
    25    22    25   1
    26    23    24   1
    27    25    26   1
    28    25    27   1
    29    27    28   1
    30    27    29   1
    31    29    30   2
    32    30    31   1
    33    30    32   1
    34    32    33   1
    35    33    34   1
    36    34    35   2
    37    34    36  am
    38     4    37   1
    39     4    38   1
    40     4    39   1
    41     5    40   1
    42     6    41   1
    43     6    42   1
    44     7    43   1
    45     7    44   1
    46     8    45   1
    47     9    46   1
    48     9    47   1
    49     9    48   1
    50    10    49   1
    51    12    50   1
    52    14    51   1
    53    15    52   1
    54    17    53   1
    55    18    54   1
    56    18    55   1
    57    19    56   1
    58    20    57   1
    59    20    58   1
    60    20    59   1
    61    21    60   1
    62    21    61   1
    63    22    62   1
    64    24    63   1
    65    24    64   1
    66    24    65   1
    67    25    66   1
    68    26    67   1
    69    27    68   1
    70    28    69   1
    71    28    70   1
    72    28    71   1
    73    29    72   1
    74    31    73   1
    75    31    74   1
    76    31    75   1
    77    32    76   1
    78    36    77   1
    79    36    78   1
@<TRIPOS>SUBSTRUCTURE
     1  BC6      2

