@<TRIPOS>MOLECULE
2vw5_ligand_003
    78    79
SMALL
GAST_HUCK
****
This file was generated by PARSER (from files_GN.cpp)

@<TRIPOS>ATOM
      1 O37        43.8297   -3.4776   31.4906 O.2         1 BC6      -0.3848
      2 C21        42.8510   -3.2690   32.1947 C.2         1 BC6       0.2138
      3 C20        43.0698   -3.1073   33.5369 C.2         1 BC6       0.0175
      4 C36        43.6596   -4.2500   34.2375 C.3         1 BC6      -0.0331
      5 C19        42.7960   -1.9124   34.1107 C.2         1 BC6      -0.0677
      6 C18        43.1184   -1.5078   35.4779 C.3         1 BC6      -0.0250
      7 C17        42.4827   -0.1617   35.9414 C.3         1 BC6      -0.0362
      8 C16        42.9174    1.1478   35.1991 C.3         1 BC6      -0.0026
      9 C35        44.4061    1.4902   35.5064 C.3         1 BC6      -0.0578
     10 N22        41.7231   -3.0916   31.5173 N.am        1 BC6      -0.2407
     11 C3         40.4541   -2.8136   31.9395 C.ar        1 BC6       0.0494
     12 C4         39.6648   -2.0277   31.0753 C.ar        1 BC6      -0.0212
     13 C5         38.3297   -1.7245   31.3939 C.ar        1 BC6       0.0678
     14 O36        37.5958   -0.9707   30.5379 O.3         1 BC6      -0.3387
     15 C6         37.7720   -2.2075   32.5912 C.ar        1 BC6      -0.0476
     16 C1         38.5323   -3.0040   33.4798 C.ar        1 BC6      -0.0648
     17 C2         39.8693   -3.3163   33.1256 C.ar        1 BC6      -0.0516
     18 C7         37.9230   -3.5182   34.7427 C.3         1 BC6      -0.0222
     19 C8         38.2695   -2.7122   36.0382 C.3         1 BC6      -0.0322
     20 C25        39.7496   -2.9070   36.4584 C.3         1 BC6      -0.0605
     21 C9         37.8397   -1.2070   35.9244 C.3         1 BC6      -0.0197
     22 C10        38.0163   -0.3317   37.2095 C.3         1 BC6       0.0859
     23 O26        37.5906   -0.9981   38.4283 O.3         1 BC6      -0.3771
     24 C27        36.2402   -1.4703   38.6027 C.3         1 BC6       0.0369
     25 C11        37.4694    1.1345   37.0917 C.3         1 BC6       0.0868
     26 O28        36.0592    1.0741   36.8513 O.3         1 BC6      -0.3877
     27 C12        38.1375    2.0701   36.0141 C.3         1 BC6      -0.0094
     28 C29        37.5491    3.5133   36.0536 C.3         1 BC6      -0.0567
     29 C13        39.5954    2.1783   36.1687 C.2         1 BC6      -0.1009
     30 C14        40.5460    2.1468   35.2005 C.2         1 BC6      -0.0506
     31 C30        40.1863    1.9862   33.7915 C.3         1 BC6      -0.0376
     32 C15        41.9713    2.3530   35.5539 C.3         1 BC6       0.1158
     33 O31        42.4365    3.5469   34.8971 O.3         1 BC6      -0.2488
     34 C32        42.1836    4.8360   35.2498 C.2         1 BC6       0.3192
     35 O33        41.4495    5.1503   36.3445 O.2         1 BC6      -0.3776
     36 N34        42.6920    5.8220   34.5020 N.am        1 BC6      -0.2762
     37 H1         43.8069   -4.0887   35.3027 H           1 BC6       0.0348
     38 H2         44.6356   -4.4916   33.8112 H           1 BC6       0.0348
     39 H3         43.0087   -5.1205   34.1291 H           1 BC6       0.0348
     40 H4         42.3475   -1.2252   33.5471 H           1 BC6       0.0638
     41 H5         44.2026   -1.4650   35.5879 H           1 BC6       0.0437
     42 H6         42.7534   -2.2689   36.1701 H           1 BC6       0.0437
     43 H7         42.6877   -0.0381   37.0102 H           1 BC6       0.0295
     44 H8         41.4016   -0.2774   35.8481 H           1 BC6       0.0295
     45 H9         42.8600    0.9773   34.1236 H           1 BC6       0.0350
     46 H10        44.7185    2.3849   34.9644 H           1 BC6       0.0235
     47 H11        45.0661    0.6791   35.1944 H           1 BC6       0.0235
     48 H12        44.5492    1.6645   36.5757 H           1 BC6       0.0235
     49 H13        41.8293   -3.0972   30.5522 H           1 BC6       0.2240
     50 H14        40.0615   -1.6641   30.2044 H           1 BC6       0.0366
     51 H15        36.9252   -1.5798   30.1573 H           1 BC6       0.2475
     52 H16        36.8025   -1.9695   32.8148 H           1 BC6       0.0358
     53 H17        40.4114   -3.9436   33.7224 H           1 BC6       0.0351
     54 H18        38.2188   -4.5605   34.8767 H           1 BC6       0.0424
     55 H19        36.8352   -3.5362   34.6424 H           1 BC6       0.0424
     56 H20        37.6754   -3.1567   36.8386 H           1 BC6       0.0321
     57 H21        39.9475   -2.4824   37.4436 H           1 BC6       0.0234
     58 H22        40.3951   -2.4225   35.7338 H           1 BC6       0.0234
     59 H23        40.0045   -3.9671   36.4992 H           1 BC6       0.0234
     60 H24        36.7882   -1.1740   35.6194 H           1 BC6       0.0295
     61 H25        38.4202   -0.7460   35.1210 H           1 BC6       0.0295
     62 H26        39.0917   -0.2295   37.3508 H           1 BC6       0.0623
     63 H27        36.1980   -2.0408   39.5359 H           1 BC6       0.0524
     64 H28        35.9338   -2.1304   37.7869 H           1 BC6       0.0524
     65 H29        35.5403   -0.6356   38.6835 H           1 BC6       0.0524
     66 H30        37.6125    1.6011   38.0710 H           1 BC6       0.0637
     67 H31        35.6841    1.9042   37.2275 H           1 BC6       0.2101
     68 H32        37.8782    1.6577   35.0328 H           1 BC6       0.0398
     69 H33        38.0316    4.1493   35.3098 H           1 BC6       0.0247
     70 H34        37.6909    3.9631   37.0382 H           1 BC6       0.0247
     71 H35        36.4826    3.5030   35.8282 H           1 BC6       0.0247
     72 H36        39.8933    2.3856   37.0918 H           1 BC6       0.0246
     73 H37        39.4764    2.7601   33.4959 H           1 BC6       0.0376
     74 H38        39.7393    1.0047   33.6278 H           1 BC6       0.0376
     75 H39        41.0453    2.0730   33.1252 H           1 BC6       0.0376
     76 H40        42.0979    2.5238   36.6300 H           1 BC6       0.0799
     77 H41        42.5312    6.7490   34.7426 H           1 BC6       0.1831
     78 H42        43.2199    5.6115   33.7145 H           1 BC6       0.1831
@<TRIPOS>BOND
     1     1     2   2
     2     2     3   1
     3     2    10  am
     4     3     4   1
     5     3     5   2
     6     5     6   1
     7     6     7   1
     8     7     8   1
     9     8     9   1
    10     8    32   1
    11    10    11   1
    12    11    12  ar
    13    11    17  ar
    14    12    13  ar
    15    13    14   1
    16    13    15  ar
    17    15    16  ar
    18    16    17  ar
    19    16    18   1
    20    18    19   1
    21    19    20   1
    22    19    21   1
    23    21    22   1
    24    22    23   1
    25    22    25   1
    26    23    24   1
    27    25    26   1
    28    25    27   1
    29    27    28   1
    30    27    29   1
    31    29    30   2
    32    30    31   1
    33    30    32   1
    34    32    33   1
    35    33    34   1
    36    34    35   2
    37    34    36  am
    38     4    37   1
    39     4    38   1
    40     4    39   1
    41     5    40   1
    42     6    41   1
    43     6    42   1
    44     7    43   1
    45     7    44   1
    46     8    45   1
    47     9    46   1
    48     9    47   1
    49     9    48   1
    50    10    49   1
    51    12    50   1
    52    14    51   1
    53    15    52   1
    54    17    53   1
    55    18    54   1
    56    18    55   1
    57    19    56   1
    58    20    57   1
    59    20    58   1
    60    20    59   1
    61    21    60   1
    62    21    61   1
    63    22    62   1
    64    24    63   1
    65    24    64   1
    66    24    65   1
    67    25    66   1
    68    26    67   1
    69    27    68   1
    70    28    69   1
    71    28    70   1
    72    28    71   1
    73    29    72   1
    74    31    73   1
    75    31    74   1
    76    31    75   1
    77    32    76   1
    78    36    77   1
    79    36    78   1
@<TRIPOS>SUBSTRUCTURE
     1  BC6      2

