@<TRIPOS>MOLECULE
2vw5_ligand_007
    78    79
SMALL
GAST_HUCK
****
This file was generated by PARSER (from files_GN.cpp)

@<TRIPOS>ATOM
      1 O37        43.4028   -6.8242   40.5380 O.2         1 BC6      -0.3848
      2 C21        42.4273   -7.4984   40.2423 C.2         1 BC6       0.2138
      3 C20        41.4083   -6.8748   39.5630 C.2         1 BC6       0.0175
      4 C36        40.7696   -5.7343   40.2238 C.3         1 BC6      -0.0331
      5 C19        41.0773   -7.3139   38.3238 C.2         1 BC6      -0.0677
      6 C18        40.1152   -6.7088   37.4104 C.3         1 BC6      -0.0250
      7 C17        39.7191   -7.5747   36.1750 C.3         1 BC6      -0.0362
      8 C16        40.8491   -8.0335   35.1889 C.3         1 BC6      -0.0026
      9 C35        41.5184   -6.8072   34.5021 C.3         1 BC6      -0.0578
     10 N22        42.5864   -8.7961   40.4654 N.am        1 BC6      -0.2407
     11 C3         41.7490   -9.8454   40.2305 C.ar        1 BC6       0.0494
     12 C4         42.3482  -11.0348   39.7786 C.ar        1 BC6      -0.0212
     13 C5         41.5852  -12.2030   39.6001 C.ar        1 BC6       0.0678
     14 O36        42.1663  -13.3548   39.1758 O.3         1 BC6      -0.3387
     15 C6         40.2136  -12.1836   39.8988 C.ar        1 BC6      -0.0476
     16 C1         39.5748  -11.0036   40.3408 C.ar        1 BC6      -0.0648
     17 C2         40.3635   -9.8380   40.5132 C.ar        1 BC6      -0.0516
     18 C7         38.1188  -11.0117   40.6638 C.3         1 BC6      -0.0222
     19 C8         37.1662  -10.4108   39.5792 C.3         1 BC6      -0.0322
     20 C25        37.4116   -8.8891   39.3838 C.3         1 BC6      -0.0605
     21 C9         37.2163  -11.2443   38.2584 C.3         1 BC6      -0.0197
     22 C10        36.4214  -10.7059   37.0266 C.3         1 BC6       0.0859
     23 O26        35.0797  -10.2505   37.3477 O.3         1 BC6      -0.3771
     24 C27        34.1077  -11.1448   37.9203 C.3         1 BC6       0.0369
     25 C11        36.4447  -11.6537   35.7790 C.3         1 BC6       0.0868
     26 O28        35.9126  -12.9184   36.1684 O.3         1 BC6      -0.3877
     27 C12        37.8369  -11.8888   35.0826 C.3         1 BC6      -0.0094
     28 C29        37.7203  -12.8260   33.8448 C.3         1 BC6      -0.0567
     29 C13        38.4825  -10.6448   34.6533 C.2         1 BC6      -0.1009
     30 C14        39.7975  -10.3215   34.7624 C.2         1 BC6      -0.0506
     31 C30        40.7503  -11.2108   35.4329 C.3         1 BC6      -0.0376
     32 C15        40.3131   -9.0794   34.1425 C.3         1 BC6       0.1158
     33 O31        41.3527   -9.4167   33.2011 O.3         1 BC6      -0.2488
     34 C32        41.3203  -10.3323   32.2001 C.2         1 BC6       0.3192
     35 O33        40.2322  -11.1063   31.9626 O.2         1 BC6      -0.3776
     36 N34        42.4034  -10.4930   31.4300 N.am        1 BC6      -0.2762
     37 H1         40.1456   -5.1354   39.5608 H           1 BC6       0.0348
     38 H2         41.5130   -5.0544   40.6466 H           1 BC6       0.0348
     39 H3         40.1411   -6.1015   41.0357 H           1 BC6       0.0348
     40 H4         41.5426   -8.1255   37.9909 H           1 BC6       0.0638
     41 H5         40.5087   -5.7482   37.0724 H           1 BC6       0.0437
     42 H6         39.1869   -6.5102   37.9526 H           1 BC6       0.0437
     43 H7         38.9733   -7.0170   35.6019 H           1 BC6       0.0295
     44 H8         39.2136   -8.4577   36.5673 H           1 BC6       0.0295
     45 H9         41.6387   -8.5229   35.7598 H           1 BC6       0.0350
     46 H10        42.2923   -7.1246   33.8021 H           1 BC6       0.0235
     47 H11        41.9983   -6.1678   35.2426 H           1 BC6       0.0235
     48 H12        40.7790   -6.2171   33.9609 H           1 BC6       0.0235
     49 H13        43.4707   -9.0563   40.7828 H           1 BC6       0.2240
     50 H14        43.3503  -11.0579   39.5804 H           1 BC6       0.0366
     51 H15        42.7966  -13.0945   38.4705 H           1 BC6       0.2475
     52 H16        39.6752  -13.0486   39.7971 H           1 BC6       0.0358
     53 H17        39.9360   -8.9907   40.8956 H           1 BC6       0.0351
     54 H18        37.9774  -10.4695   41.5966 H           1 BC6       0.0424
     55 H19        37.7938  -12.0374   40.8741 H           1 BC6       0.0424
     56 H20        36.1528  -10.4981   39.9843 H           1 BC6       0.0321
     57 H21        36.5976   -8.4368   38.8184 H           1 BC6       0.0234
     58 H22        38.3431   -8.7286   38.8427 H           1 BC6       0.0234
     59 H23        37.4720   -8.3839   40.3490 H           1 BC6       0.0234
     60 H24        36.8560  -12.2554   38.4898 H           1 BC6       0.0295
     61 H25        38.2549  -11.3365   37.9487 H           1 BC6       0.0295
     62 H26        36.9143   -9.7836   36.7174 H           1 BC6       0.0623
     63 H27        33.1860  -10.5807   38.0711 H           1 BC6       0.0524
     64 H28        34.4384  -11.5296   38.8891 H           1 BC6       0.0524
     65 H29        33.8844  -11.9797   37.2567 H           1 BC6       0.0524
     66 H30        35.7612  -11.2295   35.0365 H           1 BC6       0.0637
     67 H31        35.5865  -13.3436   35.3471 H           1 BC6       0.2101
     68 H32        38.4544  -12.4154   35.8100 H           1 BC6       0.0398
     69 H33        38.6934  -12.9599   33.3698 H           1 BC6       0.0247
     70 H34        37.0274  -12.4116   33.1096 H           1 BC6       0.0247
     71 H35        37.3663  -13.8126   34.1401 H           1 BC6       0.0247
     72 H36        37.8971  -10.0242   34.1405 H           1 BC6       0.0246
     73 H37        40.7320  -12.1969   34.9643 H           1 BC6       0.0376
     74 H38        40.4914  -11.3026   36.4883 H           1 BC6       0.0376
     75 H39        41.7785  -10.8496   35.3759 H           1 BC6       0.0376
     76 H40        39.5373   -8.5700   33.5593 H           1 BC6       0.0799
     77 H41        42.4003  -11.1458   30.7140 H           1 BC6       0.1831
     78 H42        43.1959   -9.9546   31.5912 H           1 BC6       0.1831
@<TRIPOS>BOND
     1     1     2   2
     2     2     3   1
     3     2    10  am
     4     3     4   1
     5     3     5   2
     6     5     6   1
     7     6     7   1
     8     7     8   1
     9     8     9   1
    10     8    32   1
    11    10    11   1
    12    11    12  ar
    13    11    17  ar
    14    12    13  ar
    15    13    14   1
    16    13    15  ar
    17    15    16  ar
    18    16    17  ar
    19    16    18   1
    20    18    19   1
    21    19    20   1
    22    19    21   1
    23    21    22   1
    24    22    23   1
    25    22    25   1
    26    23    24   1
    27    25    26   1
    28    25    27   1
    29    27    28   1
    30    27    29   1
    31    29    30   2
    32    30    31   1
    33    30    32   1
    34    32    33   1
    35    33    34   1
    36    34    35   2
    37    34    36  am
    38     4    37   1
    39     4    38   1
    40     4    39   1
    41     5    40   1
    42     6    41   1
    43     6    42   1
    44     7    43   1
    45     7    44   1
    46     8    45   1
    47     9    46   1
    48     9    47   1
    49     9    48   1
    50    10    49   1
    51    12    50   1
    52    14    51   1
    53    15    52   1
    54    17    53   1
    55    18    54   1
    56    18    55   1
    57    19    56   1
    58    20    57   1
    59    20    58   1
    60    20    59   1
    61    21    60   1
    62    21    61   1
    63    22    62   1
    64    24    63   1
    65    24    64   1
    66    24    65   1
    67    25    66   1
    68    26    67   1
    69    27    68   1
    70    28    69   1
    71    28    70   1
    72    28    71   1
    73    29    72   1
    74    31    73   1
    75    31    74   1
    76    31    75   1
    77    32    76   1
    78    36    77   1
    79    36    78   1
@<TRIPOS>SUBSTRUCTURE
     1  BC6      2

