@<TRIPOS>MOLECULE
2vw5_ligand_019
    78    79
SMALL
GAST_HUCK
****
This file was generated by PARSER (from files_GN.cpp)

@<TRIPOS>ATOM
      1 O37        46.3700   -6.9579   36.7825 O.2         1 BC6      -0.3848
      2 C21        45.4271   -7.6958   37.0321 C.2         1 BC6       0.2138
      3 C20        44.7343   -7.4463   38.1826 C.2         1 BC6       0.0175
      4 C36        45.4223   -7.7229   39.4480 C.3         1 BC6      -0.0331
      5 C19        43.4732   -6.9692   38.0801 C.2         1 BC6      -0.0677
      6 C18        42.5780   -6.5763   39.1663 C.3         1 BC6      -0.0250
      7 C17        41.0653   -6.5731   38.7846 C.3         1 BC6      -0.0362
      8 C16        40.5951   -5.5199   37.7252 C.3         1 BC6      -0.0026
      9 C35        40.5959   -4.0911   38.3413 C.3         1 BC6      -0.0578
     10 N22        45.0918   -8.5326   36.0545 N.am        1 BC6      -0.2407
     11 C3         44.1158   -9.4882   35.9950 C.ar        1 BC6       0.0494
     12 C4         43.6170   -9.8204   34.7188 C.ar        1 BC6      -0.0212
     13 C5         42.6685  -10.8446   34.5556 C.ar        1 BC6       0.0678
     14 O36        42.2144  -11.1327   33.3088 O.3         1 BC6      -0.3387
     15 C6         42.2144  -11.5622   35.6806 C.ar        1 BC6      -0.0476
     16 C1         42.7016  -11.2661   36.9750 C.ar        1 BC6      -0.0648
     17 C2         43.6497  -10.2249   37.1076 C.ar        1 BC6      -0.0516
     18 C7         42.2609  -12.0589   38.1663 C.3         1 BC6      -0.0222
     19 C8         41.1786  -11.3886   39.0861 C.3         1 BC6      -0.0322
     20 C25        41.7600  -10.1733   39.8511 C.3         1 BC6      -0.0605
     21 C9         39.8773  -11.0699   38.2891 C.3         1 BC6      -0.0197
     22 C10        38.6977  -10.3595   39.0255 C.3         1 BC6       0.0859
     23 O26        38.4547  -10.8582   40.3635 O.3         1 BC6      -0.3771
     24 C27        38.0809  -12.2186   40.6175 C.3         1 BC6       0.0369
     25 C11        37.4071  -10.2298   38.1434 C.3         1 BC6       0.0868
     26 O28        36.9134  -11.5235   37.7879 O.3         1 BC6      -0.3877
     27 C12        37.5458   -9.3577   36.8366 C.3         1 BC6      -0.0094
     28 C29        36.2262   -9.3162   36.0127 C.3         1 BC6      -0.0567
     29 C13        37.9483   -7.9806   37.1448 C.2         1 BC6      -0.1009
     30 C14        38.9540   -7.2319   36.6167 C.2         1 BC6      -0.0506
     31 C30        39.7962   -7.7717   35.5492 C.3         1 BC6      -0.0376
     32 C15        39.1845   -5.8493   37.1141 C.3         1 BC6       0.1158
     33 O31        38.7536   -4.8986   36.1181 O.3         1 BC6      -0.2488
     34 C32        39.2751   -4.4614   34.9409 C.2         1 BC6       0.3192
     35 O33        40.4640   -4.8732   34.4478 O.2         1 BC6      -0.3776
     36 N34        38.5973   -3.5440   34.2428 N.am        1 BC6      -0.2762
     37 H1         44.9271   -7.2886   40.3151 H           1 BC6       0.0348
     38 H2         46.4380   -7.3247   39.4359 H           1 BC6       0.0348
     39 H3         45.4886   -8.8000   39.6001 H           1 BC6       0.0348
     40 H4         43.1004   -6.8729   37.1612 H           1 BC6       0.0638
     41 H5         42.8855   -5.5968   39.5349 H           1 BC6       0.0437
     42 H6         42.6805   -7.2763   39.9978 H           1 BC6       0.0437
     43 H7         40.4821   -6.4366   39.6987 H           1 BC6       0.0295
     44 H8         40.8328   -7.5708   38.4137 H           1 BC6       0.0295
     45 H9         41.3139   -5.5092   36.9097 H           1 BC6       0.0350
     46 H10        40.2903   -3.3469   37.6055 H           1 BC6       0.0235
     47 H11        41.5938   -3.8203   38.6758 H           1 BC6       0.0235
     48 H12        39.9134   -4.0330   39.1935 H           1 BC6       0.0235
     49 H13        45.6059   -8.4278   35.2383 H           1 BC6       0.2240
     50 H14        43.9478   -9.3139   33.8908 H           1 BC6       0.0366
     51 H15        42.3561  -12.0944   33.1824 H           1 BC6       0.2475
     52 H16        41.5288  -12.3064   35.5473 H           1 BC6       0.0358
     53 H17        44.0439  -10.0374   38.0255 H           1 BC6       0.0351
     54 H18        43.1334  -12.3123   38.7728 H           1 BC6       0.0424
     55 H19        41.8676  -13.0213   37.8315 H           1 BC6       0.0424
     56 H20        40.9187  -12.1299   39.8486 H           1 BC6       0.0321
     57 H21        41.0379   -9.7651   40.5577 H           1 BC6       0.0234
     58 H22        42.0264   -9.3954   39.1474 H           1 BC6       0.0234
     59 H23        42.6512  -10.4653   40.4066 H           1 BC6       0.0234
     60 H24        39.5096  -12.0109   37.8848 H           1 BC6       0.0295
     61 H25        40.1565  -10.4474   37.4388 H           1 BC6       0.0295
     62 H26        39.0408   -9.3384   39.2099 H           1 BC6       0.0623
     63 H27        38.0760  -12.3689   41.6950 H           1 BC6       0.0524
     64 H28        38.7837  -12.9186   40.1772 H           1 BC6       0.0524
     65 H29        37.0795  -12.4233   40.2477 H           1 BC6       0.0524
     66 H30        36.6338   -9.7775   38.7706 H           1 BC6       0.0637
     67 H31        37.5041  -11.8476   37.0762 H           1 BC6       0.2101
     68 H32        38.2755   -9.8474   36.1900 H           1 BC6       0.0398
     69 H33        36.3656   -8.7166   35.1099 H           1 BC6       0.0247
     70 H34        35.4065   -8.8884   36.5921 H           1 BC6       0.0247
     71 H35        35.9376  -10.3209   35.6987 H           1 BC6       0.0247
     72 H36        37.3774   -7.5507   37.8345 H           1 BC6       0.0246
     73 H37        39.1843   -7.9885   34.6718 H           1 BC6       0.0376
     74 H38        40.2955   -8.6834   35.8738 H           1 BC6       0.0376
     75 H39        40.5820   -7.0880   35.2461 H           1 BC6       0.0376
     76 H40        38.5006   -5.6619   37.9424 H           1 BC6       0.0799
     77 H41        38.9574   -3.2065   33.4068 H           1 BC6       0.1831
     78 H42        37.7555   -3.2008   34.5781 H           1 BC6       0.1831
@<TRIPOS>BOND
     1     1     2   2
     2     2     3   1
     3     2    10  am
     4     3     4   1
     5     3     5   2
     6     5     6   1
     7     6     7   1
     8     7     8   1
     9     8     9   1
    10     8    32   1
    11    10    11   1
    12    11    12  ar
    13    11    17  ar
    14    12    13  ar
    15    13    14   1
    16    13    15  ar
    17    15    16  ar
    18    16    17  ar
    19    16    18   1
    20    18    19   1
    21    19    20   1
    22    19    21   1
    23    21    22   1
    24    22    23   1
    25    22    25   1
    26    23    24   1
    27    25    26   1
    28    25    27   1
    29    27    28   1
    30    27    29   1
    31    29    30   2
    32    30    31   1
    33    30    32   1
    34    32    33   1
    35    33    34   1
    36    34    35   2
    37    34    36  am
    38     4    37   1
    39     4    38   1
    40     4    39   1
    41     5    40   1
    42     6    41   1
    43     6    42   1
    44     7    43   1
    45     7    44   1
    46     8    45   1
    47     9    46   1
    48     9    47   1
    49     9    48   1
    50    10    49   1
    51    12    50   1
    52    14    51   1
    53    15    52   1
    54    17    53   1
    55    18    54   1
    56    18    55   1
    57    19    56   1
    58    20    57   1
    59    20    58   1
    60    20    59   1
    61    21    60   1
    62    21    61   1
    63    22    62   1
    64    24    63   1
    65    24    64   1
    66    24    65   1
    67    25    66   1
    68    26    67   1
    69    27    68   1
    70    28    69   1
    71    28    70   1
    72    28    71   1
    73    29    72   1
    74    31    73   1
    75    31    74   1
    76    31    75   1
    77    32    76   1
    78    36    77   1
    79    36    78   1
@<TRIPOS>SUBSTRUCTURE
     1  BC6      2

