@<TRIPOS>MOLECULE
2vw5_ligand_028
    78    79
SMALL
GAST_HUCK
****
This file was generated by PARSER (from files_GN.cpp)

@<TRIPOS>ATOM
      1 O37        35.0832  -12.9601   34.2928 O.2         1 BC6      -0.3848
      2 C21        35.6079  -12.4620   35.2798 C.2         1 BC6       0.2138
      3 C20        36.9570  -12.6470   35.4350 C.2         1 BC6       0.0175
      4 C36        37.4229  -14.0335   35.5370 C.3         1 BC6      -0.0331
      5 C19        37.7735  -11.5654   35.4235 C.2         1 BC6      -0.0677
      6 C18        39.2343  -11.5779   35.4204 C.3         1 BC6      -0.0250
      7 C17        39.9056  -10.1914   35.6452 C.3         1 BC6      -0.0362
      8 C16        39.6544   -9.0742   34.5720 C.3         1 BC6      -0.0026
      9 C35        40.3349   -9.4406   33.2174 C.3         1 BC6      -0.0578
     10 N22        34.7969  -11.6988   36.0062 N.am        1 BC6      -0.2407
     11 C3         35.0168  -10.9799   37.1469 C.ar        1 BC6       0.0494
     12 C4         34.3069   -9.7683   37.2763 C.ar        1 BC6      -0.0212
     13 C5         34.4379   -8.9789   38.4321 C.ar        1 BC6       0.0678
     14 O36        33.7745   -7.7949   38.5105 O.3         1 BC6      -0.3387
     15 C6         35.2587   -9.4138   39.4890 C.ar        1 BC6      -0.0476
     16 C1         35.9697  -10.6332   39.3980 C.ar        1 BC6      -0.0648
     17 C2         35.8330  -11.4111   38.2192 C.ar        1 BC6      -0.0516
     18 C7         36.8341  -11.0761   40.5303 C.3         1 BC6      -0.0222
     19 C8         38.3668  -10.8027   40.3636 C.3         1 BC6      -0.0322
     20 C25        39.0246  -11.7742   39.3475 C.3         1 BC6      -0.0605
     21 C9         38.6581   -9.2940   40.0601 C.3         1 BC6      -0.0197
     22 C10        40.1596   -8.8670   40.0013 C.3         1 BC6       0.0859
     23 O26        40.8235   -9.4146   41.1667 O.3         1 BC6      -0.3771
     24 C27        42.2559   -9.3226   41.1997 C.3         1 BC6       0.0369
     25 C11        40.3636   -7.3104   39.9615 C.3         1 BC6       0.0868
     26 O28        39.8874   -6.7505   41.1879 O.3         1 BC6      -0.3877
     27 C12        39.7036   -6.5517   38.7555 C.3         1 BC6      -0.0094
     28 C29        39.9778   -5.0197   38.8293 C.3         1 BC6      -0.0567
     29 C13        40.1770   -7.0446   37.4556 C.2         1 BC6      -0.1009
     30 C14        39.4537   -7.2251   36.3244 C.2         1 BC6      -0.0506
     31 C30        38.0094   -6.9794   36.2889 C.3         1 BC6      -0.0376
     32 C15        40.1254   -7.6636   35.0779 C.3         1 BC6       0.1158
     33 O31        39.9130   -6.6752   34.0505 O.3         1 BC6      -0.2488
     34 C32        40.4488   -5.4278   33.9743 C.2         1 BC6       0.3192
     35 O33        41.2934   -4.9487   34.9118 O.2         1 BC6      -0.3776
     36 N34        40.1094   -4.6461   32.9400 N.am        1 BC6      -0.2762
     37 H1         38.4977  -14.1332   35.6588 H           1 BC6       0.0348
     38 H2         37.1427  -14.5957   34.6418 H           1 BC6       0.0348
     39 H3         36.9487  -14.5054   36.4033 H           1 BC6       0.0348
     40 H4         37.3424  -10.6655   35.4040 H           1 BC6       0.0638
     41 H5         39.5856  -12.0119   34.4837 H           1 BC6       0.0437
     42 H6         39.5872  -12.2203   36.2327 H           1 BC6       0.0437
     43 H7         40.9819  -10.3465   35.7406 H           1 BC6       0.0295
     44 H8         39.5585   -9.8384   36.6192 H           1 BC6       0.0295
     45 H9         38.5837   -9.0161   34.3713 H           1 BC6       0.0350
     46 H10        40.1142   -8.6850   32.4613 H           1 BC6       0.0235
     47 H11        39.9666  -10.3976   32.8384 H           1 BC6       0.0235
     48 H12        41.4189   -9.5087   33.3347 H           1 BC6       0.0235
     49 H13        33.9109  -11.5867   35.6267 H           1 BC6       0.2240
     50 H14        33.7006   -9.4452   36.5182 H           1 BC6       0.0366
     51 H15        32.8813   -8.0198   38.8662 H           1 BC6       0.2475
     52 H16        35.3463   -8.8225   40.3193 H           1 BC6       0.0358
     53 H17        36.3116  -12.3117   38.1578 H           1 BC6       0.0351
     54 H18        36.6689  -12.1438   40.7028 H           1 BC6       0.0424
     55 H19        36.5089  -10.5795   41.4532 H           1 BC6       0.0424
     56 H20        38.8169  -11.0307   41.3371 H           1 BC6       0.0321
     57 H21        40.1118  -11.6889   39.3770 H           1 BC6       0.0234
     58 H22        38.6849  -11.5484   38.3399 H           1 BC6       0.0234
     59 H23        38.7651  -12.8068   39.5847 H           1 BC6       0.0234
     60 H24        38.1627   -8.6956   40.8324 H           1 BC6       0.0295
     61 H25        38.1991   -9.0456   39.1002 H           1 BC6       0.0295
     62 H26        40.5812   -9.2957   39.0828 H           1 BC6       0.0623
     63 H27        42.6033   -9.7820   42.1239 H           1 BC6       0.0524
     64 H28        42.5939   -8.2875   41.1842 H           1 BC6       0.0524
     65 H29        42.7003   -9.8607   40.3625 H           1 BC6       0.0524
     66 H30        41.4364   -7.1068   39.9191 H           1 BC6       0.0637
     67 H31        40.6900   -6.4762   41.6762 H           1 BC6       0.2101
     68 H32        38.6204   -6.6791   38.8487 H           1 BC6       0.0398
     69 H33        39.5082   -4.5043   37.9874 H           1 BC6       0.0247
     70 H34        41.0524   -4.8133   38.8112 H           1 BC6       0.0247
     71 H35        39.5611   -4.6000   39.7495 H           1 BC6       0.0247
     72 H36        41.1592   -7.1878   37.3961 H           1 BC6       0.0246
     73 H37        37.7638   -6.0108   36.7461 H           1 BC6       0.0376
     74 H38        37.4895   -7.7762   36.8362 H           1 BC6       0.0376
     75 H39        37.6099   -6.9570   35.2682 H           1 BC6       0.0376
     76 H40        41.2104   -7.7377   35.2143 H           1 BC6       0.0799
     77 H41        40.4737   -3.7489   32.8631 H           1 BC6       0.1831
     78 H42        39.5040   -4.9779   32.2598 H           1 BC6       0.1831
@<TRIPOS>BOND
     1     1     2   2
     2     2     3   1
     3     2    10  am
     4     3     4   1
     5     3     5   2
     6     5     6   1
     7     6     7   1
     8     7     8   1
     9     8     9   1
    10     8    32   1
    11    10    11   1
    12    11    12  ar
    13    11    17  ar
    14    12    13  ar
    15    13    14   1
    16    13    15  ar
    17    15    16  ar
    18    16    17  ar
    19    16    18   1
    20    18    19   1
    21    19    20   1
    22    19    21   1
    23    21    22   1
    24    22    23   1
    25    22    25   1
    26    23    24   1
    27    25    26   1
    28    25    27   1
    29    27    28   1
    30    27    29   1
    31    29    30   2
    32    30    31   1
    33    30    32   1
    34    32    33   1
    35    33    34   1
    36    34    35   2
    37    34    36  am
    38     4    37   1
    39     4    38   1
    40     4    39   1
    41     5    40   1
    42     6    41   1
    43     6    42   1
    44     7    43   1
    45     7    44   1
    46     8    45   1
    47     9    46   1
    48     9    47   1
    49     9    48   1
    50    10    49   1
    51    12    50   1
    52    14    51   1
    53    15    52   1
    54    17    53   1
    55    18    54   1
    56    18    55   1
    57    19    56   1
    58    20    57   1
    59    20    58   1
    60    20    59   1
    61    21    60   1
    62    21    61   1
    63    22    62   1
    64    24    63   1
    65    24    64   1
    66    24    65   1
    67    25    66   1
    68    26    67   1
    69    27    68   1
    70    28    69   1
    71    28    70   1
    72    28    71   1
    73    29    72   1
    74    31    73   1
    75    31    74   1
    76    31    75   1
    77    32    76   1
    78    36    77   1
    79    36    78   1
@<TRIPOS>SUBSTRUCTURE
     1  BC6      2

