@<TRIPOS>MOLECULE
2vw5_ligand_002
    78    79
SMALL
GAST_HUCK
****
This file was generated by PARSER (from files_GN.cpp)

@<TRIPOS>ATOM
      1 O37        44.4328    1.7984   31.4492 O.2         1 BC6      -0.3848
      2 C21        44.2994    0.6121   31.7178 C.2         1 BC6       0.2138
      3 C20        44.7938    0.1888   32.9263 C.2         1 BC6       0.0175
      4 C36        46.2248    0.4019   33.1592 C.3         1 BC6      -0.0331
      5 C19        43.9391   -0.3329   33.8390 C.2         1 BC6      -0.0677
      6 C18        44.2498   -0.6914   35.2182 C.3         1 BC6      -0.0250
      7 C17        43.1472   -1.4805   35.9830 C.3         1 BC6      -0.0362
      8 C16        41.7167   -0.8514   36.1323 C.3         1 BC6      -0.0026
      9 C35        41.7799    0.5507   36.7889 C.3         1 BC6      -0.0578
     10 N22        43.5539   -0.0622   30.8519 N.am        1 BC6      -0.2407
     11 C3         43.1479   -1.3663   30.8335 C.ar        1 BC6       0.0494
     12 C4         41.8669   -1.6197   30.3077 C.ar        1 BC6      -0.0212
     13 C5         41.3667   -2.9304   30.2236 C.ar        1 BC6       0.0678
     14 O36        40.1267   -3.1181   29.7045 O.3         1 BC6      -0.3387
     15 C6         42.1668   -4.0079   30.6447 C.ar        1 BC6      -0.0476
     16 C1         43.4657   -3.7942   31.1648 C.ar        1 BC6      -0.0648
     17 C2         43.9480   -2.4628   31.2360 C.ar        1 BC6      -0.0516
     18 C7         44.3327   -4.9546   31.5425 C.3         1 BC6      -0.0222
     19 C8         44.4960   -5.2473   33.0725 C.3         1 BC6      -0.0322
     20 C25        45.2575   -4.1108   33.8055 C.3         1 BC6      -0.0605
     21 C9         43.1352   -5.6465   33.7382 C.3         1 BC6      -0.0197
     22 C10        43.1333   -5.9017   35.2841 C.3         1 BC6       0.0859
     23 O26        44.3028   -6.6067   35.7612 O.3         1 BC6      -0.3771
     24 C27        44.5371   -7.9728   35.3526 C.3         1 BC6       0.0369
     25 C11        41.7967   -6.4840   35.8754 C.3         1 BC6       0.0868
     26 O28        41.4699   -7.7162   35.2223 O.3         1 BC6      -0.3877
     27 C12        40.5403   -5.5428   35.8489 C.3         1 BC6      -0.0094
     28 C29        39.3111   -6.2263   36.5189 C.3         1 BC6      -0.0567
     29 C13        40.7804   -4.2593   36.5235 C.2         1 BC6      -0.1009
     30 C14        40.3946   -3.0262   36.1191 C.2         1 BC6      -0.0506
     31 C30        39.5831   -2.8519   34.9107 C.3         1 BC6      -0.0376
     32 C15        40.7638   -1.8338   36.9154 C.3         1 BC6       0.1158
     33 O31        39.5370   -1.1967   37.3240 O.3         1 BC6      -0.2488
     34 C32        38.9824   -1.1127   38.5647 C.2         1 BC6       0.3192
     35 O33        39.5588   -1.6551   39.6624 O.2         1 BC6      -0.3776
     36 N34        37.8086   -0.4811   38.6973 N.am        1 BC6      -0.2762
     37 H1         46.5740    0.0549   34.1303 H           1 BC6       0.0348
     38 H2         46.4622    1.4658   33.0955 H           1 BC6       0.0348
     39 H3         46.8011   -0.1274   32.3970 H           1 BC6       0.0348
     40 H4         42.9931   -0.4659   33.5607 H           1 BC6       0.0638
     41 H5         44.5000    0.2143   35.7735 H           1 BC6       0.0437
     42 H6         45.1359   -1.3287   35.2311 H           1 BC6       0.0437
     43 H7         43.5330   -1.6780   36.9863 H           1 BC6       0.0295
     44 H8         43.0351   -2.4451   35.4878 H           1 BC6       0.0295
     45 H9         41.3030   -0.6919   35.1334 H           1 BC6       0.0350
     46 H10        40.7817    0.9909   36.8440 H           1 BC6       0.0235
     47 H11        42.3937    1.2339   36.1987 H           1 BC6       0.0235
     48 H12        42.1939    0.4837   37.7951 H           1 BC6       0.0235
     49 H13        43.1621    0.4869   30.1539 H           1 BC6       0.2240
     50 H14        41.2861   -0.8409   29.9879 H           1 BC6       0.0366
     51 H15        39.7170   -3.8510   30.2112 H           1 BC6       0.2475
     52 H16        41.7921   -4.9532   30.5447 H           1 BC6       0.0358
     53 H17        44.9029   -2.2953   31.5568 H           1 BC6       0.0351
     54 H18        45.3186   -4.8004   31.1006 H           1 BC6       0.0424
     55 H19        43.9449   -5.8656   31.0773 H           1 BC6       0.0424
     56 H20        45.1481   -6.1238   33.1406 H           1 BC6       0.0321
     57 H21        45.5279   -4.4049   34.8206 H           1 BC6       0.0234
     58 H22        44.6341   -3.2262   33.8573 H           1 BC6       0.0234
     59 H23        46.1787   -3.8631   33.2785 H           1 BC6       0.0234
     60 H24        42.7838   -6.5591   33.2473 H           1 BC6       0.0295
     61 H25        42.4007   -4.8666   33.5369 H           1 BC6       0.0295
     62 H26        43.2552   -4.9198   35.7426 H           1 BC6       0.0623
     63 H27        45.5423   -8.2533   35.6765 H           1 BC6       0.0524
     64 H28        44.4745   -8.0927   34.2655 H           1 BC6       0.0524
     65 H29        43.8246   -8.6450   35.8393 H           1 BC6       0.0524
     66 H30        41.9971   -6.7357   36.9253 H           1 BC6       0.0637
     67 H31        41.0026   -7.4543   34.4013 H           1 BC6       0.2101
     68 H32        40.2850   -5.3943   34.7968 H           1 BC6       0.0398
     69 H33        38.4376   -5.5724   36.4860 H           1 BC6       0.0247
     70 H34        39.5278   -6.4668   37.5632 H           1 BC6       0.0247
     71 H35        39.0558   -7.1500   35.9965 H           1 BC6       0.0247
     72 H36        41.2542   -4.3336   37.3965 H           1 BC6       0.0246
     73 H37        38.6796   -3.4617   34.9677 H           1 BC6       0.0376
     74 H38        40.1563   -3.1433   34.0306 H           1 BC6       0.0376
     75 H39        39.2600   -1.8215   34.7676 H           1 BC6       0.0376
     76 H40        41.3034   -2.1225   37.8218 H           1 BC6       0.0799
     77 H41        37.3739   -0.4306   39.5657 H           1 BC6       0.1831
     78 H42        37.3845   -0.0880   37.9203 H           1 BC6       0.1831
@<TRIPOS>BOND
     1     1     2   2
     2     2     3   1
     3     2    10  am
     4     3     4   1
     5     3     5   2
     6     5     6   1
     7     6     7   1
     8     7     8   1
     9     8     9   1
    10     8    32   1
    11    10    11   1
    12    11    12  ar
    13    11    17  ar
    14    12    13  ar
    15    13    14   1
    16    13    15  ar
    17    15    16  ar
    18    16    17  ar
    19    16    18   1
    20    18    19   1
    21    19    20   1
    22    19    21   1
    23    21    22   1
    24    22    23   1
    25    22    25   1
    26    23    24   1
    27    25    26   1
    28    25    27   1
    29    27    28   1
    30    27    29   1
    31    29    30   2
    32    30    31   1
    33    30    32   1
    34    32    33   1
    35    33    34   1
    36    34    35   2
    37    34    36  am
    38     4    37   1
    39     4    38   1
    40     4    39   1
    41     5    40   1
    42     6    41   1
    43     6    42   1
    44     7    43   1
    45     7    44   1
    46     8    45   1
    47     9    46   1
    48     9    47   1
    49     9    48   1
    50    10    49   1
    51    12    50   1
    52    14    51   1
    53    15    52   1
    54    17    53   1
    55    18    54   1
    56    18    55   1
    57    19    56   1
    58    20    57   1
    59    20    58   1
    60    20    59   1
    61    21    60   1
    62    21    61   1
    63    22    62   1
    64    24    63   1
    65    24    64   1
    66    24    65   1
    67    25    66   1
    68    26    67   1
    69    27    68   1
    70    28    69   1
    71    28    70   1
    72    28    71   1
    73    29    72   1
    74    31    73   1
    75    31    74   1
    76    31    75   1
    77    32    76   1
    78    36    77   1
    79    36    78   1
@<TRIPOS>SUBSTRUCTURE
     1  BC6      2

