@<TRIPOS>MOLECULE
2vw5_ligand_015
    78    79
SMALL
GAST_HUCK
****
This file was generated by PARSER (from files_GN.cpp)

@<TRIPOS>ATOM
      1 O37        43.4534   -6.7407   32.0708 O.2         1 BC6      -0.3848
      2 C21        43.2709   -6.9939   33.2535 C.2         1 BC6       0.2138
      3 C20        42.3465   -6.2454   33.9389 C.2         1 BC6       0.0175
      4 C36        42.6240   -4.8058   34.0106 C.3         1 BC6      -0.0331
      5 C19        41.2451   -6.8405   34.4551 C.2         1 BC6      -0.0677
      6 C18        40.1341   -6.1966   35.1431 C.3         1 BC6      -0.0250
      7 C17        39.2722   -7.1179   36.0519 C.3         1 BC6      -0.0362
      8 C16        38.4876   -8.3212   35.4237 C.3         1 BC6      -0.0026
      9 C35        37.4850   -7.8563   34.3267 C.3         1 BC6      -0.0578
     10 N22        43.8858   -8.0925   33.6737 N.am        1 BC6      -0.2407
     11 C3         43.8495   -8.6435   34.9143 C.ar        1 BC6       0.0494
     12 C4         43.5710  -10.0181   35.0265 C.ar        1 BC6      -0.0212
     13 C5         43.4526  -10.6276   36.2921 C.ar        1 BC6       0.0678
     14 O36        43.1121  -11.9369   36.3675 O.3         1 BC6      -0.3387
     15 C6         43.6564   -9.8631   37.4543 C.ar        1 BC6      -0.0476
     16 C1         43.9869   -8.4906   37.3663 C.ar        1 BC6      -0.0648
     17 C2         44.0752   -7.8920   36.0867 C.ar        1 BC6      -0.0516
     18 C7         44.2505   -7.6814   38.5980 C.3         1 BC6      -0.0222
     19 C8         42.9951   -6.9789   39.2334 C.3         1 BC6      -0.0322
     20 C25        42.3993   -5.8848   38.2986 C.3         1 BC6      -0.0605
     21 C9         41.9397   -8.0377   39.6894 C.3         1 BC6      -0.0197
     22 C10        40.6335   -7.5473   40.3911 C.3         1 BC6       0.0859
     23 O26        40.8245   -6.4679   41.3356 O.3         1 BC6      -0.3771
     24 C27        41.6748   -6.6173   42.4861 C.3         1 BC6       0.0369
     25 C11        39.7572   -8.7164   40.9589 C.3         1 BC6       0.0868
     26 O28        40.4075   -9.3357   42.0803 O.3         1 BC6      -0.3877
     27 C12        39.3286   -9.8556   39.9649 C.3         1 BC6      -0.0094
     28 C29        38.4786  -10.9621   40.6607 C.3         1 BC6      -0.0567
     29 C13        38.5656   -9.3271   38.8337 C.2         1 BC6      -0.1009
     30 C14        38.6445   -9.7288   37.5436 C.2         1 BC6      -0.0506
     31 C30        39.6128  -10.7377   37.1214 C.3         1 BC6      -0.0376
     32 C15        37.7374   -9.1395   36.5381 C.3         1 BC6       0.1158
     33 O31        36.9712  -10.2420   35.9917 O.3         1 BC6      -0.2488
     34 C32        35.6285  -10.4614   36.1038 C.2         1 BC6       0.3192
     35 O33        34.8111   -9.6220   36.7908 O.2         1 BC6      -0.3776
     36 N34        35.0994  -11.5554   35.5423 N.am        1 BC6      -0.2762
     37 H1         41.8393   -4.2182   34.4860 H           1 BC6       0.0348
     38 H2         42.7553   -4.3860   33.0073 H           1 BC6       0.0348
     39 H3         43.5465   -4.6370   34.5758 H           1 BC6       0.0348
     40 H4         41.1673   -7.8210   34.3335 H           1 BC6       0.0638
     41 H5         39.5022   -5.7022   34.4123 H           1 BC6       0.0437
     42 H6         40.5161   -5.4261   35.8082 H           1 BC6       0.0437
     43 H7         38.5488   -6.4872   36.5712 H           1 BC6       0.0295
     44 H8         39.9424   -7.5175   36.8162 H           1 BC6       0.0295
     45 H9         39.1989   -8.9915   34.9263 H           1 BC6       0.0350
     46 H10        36.8704   -8.6832   33.9698 H           1 BC6       0.0235
     47 H11        38.0317   -7.4745   33.4704 H           1 BC6       0.0235
     48 H12        36.8361   -7.0772   34.7153 H           1 BC6       0.0235
     49 H13        44.3375   -8.6183   32.9996 H           1 BC6       0.2240
     50 H14        43.4150  -10.5816   34.1862 H           1 BC6       0.0366
     51 H15        42.5889  -12.0368   37.1925 H           1 BC6       0.2475
     52 H16        43.5678  -10.3044   38.3660 H           1 BC6       0.0358
     53 H17        44.3182   -6.8997   36.0065 H           1 BC6       0.0351
     54 H18        45.0019   -6.9177   38.3692 H           1 BC6       0.0424
     55 H19        44.7112   -8.3268   39.3601 H           1 BC6       0.0424
     56 H20        43.3383   -6.4720   40.1524 H           1 BC6       0.0321
     57 H21        41.5909   -5.3561   38.8025 H           1 BC6       0.0234
     58 H22        42.0254   -6.3432   37.3900 H           1 BC6       0.0234
     59 H23        43.1619   -5.1460   38.0464 H           1 BC6       0.0234
     60 H24        42.4532   -8.7397   40.3419 H           1 BC6       0.0295
     61 H25        41.6322   -8.5946   38.8029 H           1 BC6       0.0295
     62 H26        40.0257   -7.0867   39.6029 H           1 BC6       0.0623
     63 H27        41.7710   -5.6358   42.9632 H           1 BC6       0.0524
     64 H28        42.6742   -6.9744   42.2075 H           1 BC6       0.0524
     65 H29        41.2281   -7.2904   43.2327 H           1 BC6       0.0524
     66 H30        38.8461   -8.2629   41.3490 H           1 BC6       0.0637
     67 H31        41.3236   -9.5438   41.7756 H           1 BC6       0.2101
     68 H32        40.2591  -10.3428   39.6418 H           1 BC6       0.0398
     69 H33        38.2536  -11.7620   39.9556 H           1 BC6       0.0247
     70 H34        37.5375  -10.5551   41.0355 H           1 BC6       0.0247
     71 H35        39.0258  -11.4064   41.4972 H           1 BC6       0.0247
     72 H36        37.8848   -8.6548   39.0712 H           1 BC6       0.0246
     73 H37        39.4939  -11.6484   37.7170 H           1 BC6       0.0376
     74 H38        40.6309  -10.3557   37.2507 H           1 BC6       0.0376
     75 H39        39.5018  -11.0282   36.0704 H           1 BC6       0.0376
     76 H40        37.0423   -8.4405   37.0045 H           1 BC6       0.0799
     77 H41        34.1510  -11.7291   35.6225 H           1 BC6       0.1831
     78 H42        35.6639  -12.1703   35.0547 H           1 BC6       0.1831
@<TRIPOS>BOND
     1     1     2   2
     2     2     3   1
     3     2    10  am
     4     3     4   1
     5     3     5   2
     6     5     6   1
     7     6     7   1
     8     7     8   1
     9     8     9   1
    10     8    32   1
    11    10    11   1
    12    11    12  ar
    13    11    17  ar
    14    12    13  ar
    15    13    14   1
    16    13    15  ar
    17    15    16  ar
    18    16    17  ar
    19    16    18   1
    20    18    19   1
    21    19    20   1
    22    19    21   1
    23    21    22   1
    24    22    23   1
    25    22    25   1
    26    23    24   1
    27    25    26   1
    28    25    27   1
    29    27    28   1
    30    27    29   1
    31    29    30   2
    32    30    31   1
    33    30    32   1
    34    32    33   1
    35    33    34   1
    36    34    35   2
    37    34    36  am
    38     4    37   1
    39     4    38   1
    40     4    39   1
    41     5    40   1
    42     6    41   1
    43     6    42   1
    44     7    43   1
    45     7    44   1
    46     8    45   1
    47     9    46   1
    48     9    47   1
    49     9    48   1
    50    10    49   1
    51    12    50   1
    52    14    51   1
    53    15    52   1
    54    17    53   1
    55    18    54   1
    56    18    55   1
    57    19    56   1
    58    20    57   1
    59    20    58   1
    60    20    59   1
    61    21    60   1
    62    21    61   1
    63    22    62   1
    64    24    63   1
    65    24    64   1
    66    24    65   1
    67    25    66   1
    68    26    67   1
    69    27    68   1
    70    28    69   1
    71    28    70   1
    72    28    71   1
    73    29    72   1
    74    31    73   1
    75    31    74   1
    76    31    75   1
    77    32    76   1
    78    36    77   1
    79    36    78   1
@<TRIPOS>SUBSTRUCTURE
     1  BC6      2

