@<TRIPOS>MOLECULE
2vw5_ligand_012
    78    79
SMALL
GAST_HUCK
****
This file was generated by PARSER (from files_GN.cpp)

@<TRIPOS>ATOM
      1 O37        47.5293  -15.8208   34.8325 O.2         1 BC6      -0.3848
      2 C21        47.5320  -14.8836   34.0550 C.2         1 BC6       0.2138
      3 C20        48.3936  -14.9498   32.9863 C.2         1 BC6       0.0175
      4 C36        49.8170  -15.1099   33.3031 C.3         1 BC6      -0.0331
      5 C19        47.8888  -14.9493   31.7344 C.2         1 BC6      -0.0677
      6 C18        48.6242  -15.1891   30.4931 C.3         1 BC6      -0.0250
      7 C17        47.8134  -14.9492   29.1840 C.3         1 BC6      -0.0362
      8 C16        46.5450  -15.8397   28.9318 C.3         1 BC6      -0.0026
      9 C35        46.9531  -17.3124   28.6360 C.3         1 BC6      -0.0578
     10 N22        46.5656  -13.9942   34.2726 N.am        1 BC6      -0.2407
     11 C3         46.2404  -12.8460   33.6145 C.ar        1 BC6       0.0494
     12 C4         44.8642  -12.5418   33.4988 C.ar        1 BC6      -0.0212
     13 C5         44.4412  -11.3567   32.8770 C.ar        1 BC6       0.0678
     14 O36        43.1203  -11.0832   32.7150 O.3         1 BC6      -0.3387
     15 C6         45.3979  -10.4389   32.4001 C.ar        1 BC6      -0.0476
     16 C1         46.7794  -10.7132   32.5024 C.ar        1 BC6      -0.0648
     17 C2         47.1859  -11.9215   33.1235 C.ar        1 BC6      -0.0516
     18 C7         47.7814   -9.7614   31.9357 C.3         1 BC6      -0.0222
     19 C8         48.2928  -10.1092   30.4966 C.3         1 BC6      -0.0322
     20 C25        49.2083  -11.3649   30.4916 C.3         1 BC6      -0.0605
     21 C9         47.1127  -10.1945   29.4720 C.3         1 BC6      -0.0197
     22 C10        47.4645  -10.5141   27.9821 C.3         1 BC6       0.0859
     23 O26        48.6361   -9.8065   27.4992 O.3         1 BC6      -0.3771
     24 C27        48.6317   -8.3813   27.3202 C.3         1 BC6       0.0369
     25 C11        46.2467  -10.4402   26.9976 C.3         1 BC6       0.0868
     26 O28        45.7129   -9.1207   26.9799 O.3         1 BC6      -0.3877
     27 C12        45.0775  -11.4682   27.2507 C.3         1 BC6      -0.0094
     28 C29        43.9430  -11.3141   26.1974 C.3         1 BC6      -0.0567
     29 C13        45.5302  -12.8671   27.2404 C.2         1 BC6      -0.1009
     30 C14        45.1546  -13.8742   28.0559 C.2         1 BC6      -0.0506
     31 C30        44.2395  -13.6451   29.1831 C.3         1 BC6      -0.0376
     32 C15        45.6208  -15.2611   27.7975 C.3         1 BC6       0.1158
     33 O31        44.4922  -16.1367   27.5855 O.3         1 BC6      -0.2488
     34 C32        43.3440  -15.8684   26.8959 C.2         1 BC6       0.3192
     35 O33        43.1313  -14.6408   26.3757 O.2         1 BC6      -0.3776
     36 N34        42.3916  -16.7909   26.7550 N.am        1 BC6      -0.2762
     37 H1         50.4642  -15.1492   32.4278 H           1 BC6       0.0348
     38 H2         49.9788  -16.0340   33.8621 H           1 BC6       0.0348
     39 H3         50.1536  -14.2715   33.9164 H           1 BC6       0.0348
     40 H4         46.9101  -14.7911   31.6340 H           1 BC6       0.0638
     41 H5         49.0163  -16.2082   30.5035 H           1 BC6       0.0437
     42 H6         49.4788  -14.5096   30.4552 H           1 BC6       0.0437
     43 H7         48.4945  -15.0649   28.3351 H           1 BC6       0.0295
     44 H8         47.5164  -13.8997   29.1980 H           1 BC6       0.0295
     45 H9         45.9490  -15.8710   29.8444 H           1 BC6       0.0350
     46 H10        46.0709  -17.9404   28.4994 H           1 BC6       0.0235
     47 H11        47.5211  -17.7316   29.4669 H           1 BC6       0.0235
     48 H12        47.5632  -17.3725   27.7318 H           1 BC6       0.0235
     49 H13        45.9617  -14.2279   34.9935 H           1 BC6       0.2240
     50 H14        44.1645  -13.1981   33.8545 H           1 BC6       0.0366
     51 H15        42.8364  -11.5932   31.9259 H           1 BC6       0.2475
     52 H16        45.0744   -9.5789   31.9515 H           1 BC6       0.0358
     53 H17        48.1845  -12.1160   33.2369 H           1 BC6       0.0351
     54 H18        48.6292   -9.6889   32.6205 H           1 BC6       0.0424
     55 H19        47.3456   -8.7587   31.9038 H           1 BC6       0.0424
     56 H20        48.9302   -9.2749   30.1925 H           1 BC6       0.0321
     57 H21        49.7085  -11.4794   29.5293 H           1 BC6       0.0234
     58 H22        48.6157  -12.2543   30.6844 H           1 BC6       0.0234
     59 H23        49.9802  -11.2821   31.2590 H           1 BC6       0.0234
     60 H24        46.5746   -9.2460   29.5101 H           1 BC6       0.0295
     61 H25        46.4256  -10.9720   29.8091 H           1 BC6       0.0295
     62 H26        47.7965  -11.5531   27.9709 H           1 BC6       0.0623
     63 H27        49.6559   -8.0758   27.0890 H           1 BC6       0.0524
     64 H28        48.3194   -7.8570   28.2276 H           1 BC6       0.0524
     65 H29        48.0060   -8.0897   26.4855 H           1 BC6       0.0524
     66 H30        46.6356  -10.6262   25.9932 H           1 BC6       0.0637
     67 H31        44.9418   -9.1319   27.5896 H           1 BC6       0.2101
     68 H32        44.6361  -11.2132   28.2172 H           1 BC6       0.0398
     69 H33        43.1316  -12.0197   26.3940 H           1 BC6       0.0247
     70 H34        44.3192  -11.4931   25.1873 H           1 BC6       0.0247
     71 H35        43.5158  -10.3093   26.2321 H           1 BC6       0.0247
     72 H36        46.1196  -13.1010   26.4676 H           1 BC6       0.0246
     73 H37        43.3102  -13.1925   28.8352 H           1 BC6       0.0376
     74 H38        44.7175  -12.9848   29.9071 H           1 BC6       0.0376
     75 H39        43.9695  -14.5680   29.6948 H           1 BC6       0.0376
     76 H40        46.2072  -15.3101   26.8722 H           1 BC6       0.0799
     77 H41        41.5657  -16.5688   26.2857 H           1 BC6       0.1831
     78 H42        42.5114  -17.7031   27.0663 H           1 BC6       0.1831
@<TRIPOS>BOND
     1     1     2   2
     2     2     3   1
     3     2    10  am
     4     3     4   1
     5     3     5   2
     6     5     6   1
     7     6     7   1
     8     7     8   1
     9     8     9   1
    10     8    32   1
    11    10    11   1
    12    11    12  ar
    13    11    17  ar
    14    12    13  ar
    15    13    14   1
    16    13    15  ar
    17    15    16  ar
    18    16    17  ar
    19    16    18   1
    20    18    19   1
    21    19    20   1
    22    19    21   1
    23    21    22   1
    24    22    23   1
    25    22    25   1
    26    23    24   1
    27    25    26   1
    28    25    27   1
    29    27    28   1
    30    27    29   1
    31    29    30   2
    32    30    31   1
    33    30    32   1
    34    32    33   1
    35    33    34   1
    36    34    35   2
    37    34    36  am
    38     4    37   1
    39     4    38   1
    40     4    39   1
    41     5    40   1
    42     6    41   1
    43     6    42   1
    44     7    43   1
    45     7    44   1
    46     8    45   1
    47     9    46   1
    48     9    47   1
    49     9    48   1
    50    10    49   1
    51    12    50   1
    52    14    51   1
    53    15    52   1
    54    17    53   1
    55    18    54   1
    56    18    55   1
    57    19    56   1
    58    20    57   1
    59    20    58   1
    60    20    59   1
    61    21    60   1
    62    21    61   1
    63    22    62   1
    64    24    63   1
    65    24    64   1
    66    24    65   1
    67    25    66   1
    68    26    67   1
    69    27    68   1
    70    28    69   1
    71    28    70   1
    72    28    71   1
    73    29    72   1
    74    31    73   1
    75    31    74   1
    76    31    75   1
    77    32    76   1
    78    36    77   1
    79    36    78   1
@<TRIPOS>SUBSTRUCTURE
     1  BC6      2

