@<TRIPOS>MOLECULE
2vw5_ligand_008
    78    79
SMALL
GAST_HUCK
****
This file was generated by PARSER (from files_GN.cpp)

@<TRIPOS>ATOM
      1 O37        41.3394    2.9996   34.1118 O.2         1 BC6      -0.3848
      2 C21        41.4617    1.7865   33.9872 C.2         1 BC6       0.2138
      3 C20        42.1484    1.1215   34.9755 C.2         1 BC6       0.0175
      4 C36        43.5382    1.5358   35.1980 C.3         1 BC6      -0.0331
      5 C19        41.5112    0.1706   35.7004 C.2         1 BC6      -0.0677
      6 C18        42.0495   -0.5719   36.8353 C.3         1 BC6      -0.0250
      7 C17        41.2186   -1.8254   37.2478 C.3         1 BC6      -0.0362
      8 C16        39.8238   -1.5616   37.9095 C.3         1 BC6      -0.0026
      9 C35        39.9988   -1.0172   39.3557 C.3         1 BC6      -0.0578
     10 N22        40.7849    1.2721   32.9694 N.am        1 BC6      -0.2407
     11 C3         40.6620   -0.0212   32.5542 C.ar        1 BC6       0.0494
     12 C4         39.3947   -0.4303   32.0942 C.ar        1 BC6      -0.0212
     13 C5         39.1809   -1.7362   31.6288 C.ar        1 BC6       0.0678
     14 O36        37.9348   -2.0926   31.2089 O.3         1 BC6      -0.3387
     15 C6         40.2553   -2.6492   31.6020 C.ar        1 BC6      -0.0476
     16 C1         41.5453   -2.2651   32.0353 C.ar        1 BC6      -0.0648
     17 C2         41.7374   -0.9393   32.4976 C.ar        1 BC6      -0.0516
     18 C7         42.6776   -3.2398   31.9895 C.3         1 BC6      -0.0222
     19 C8         42.9882   -3.9933   33.3265 C.3         1 BC6      -0.0322
     20 C25        43.6270   -3.0480   34.3782 C.3         1 BC6      -0.0605
     21 C9         41.7412   -4.7707   33.8687 C.3         1 BC6      -0.0197
     22 C10        41.9274   -5.6576   35.1458 C.3         1 BC6       0.0859
     23 O26        43.2119   -6.3259   35.2005 O.3         1 BC6      -0.3771
     24 C27        43.5651   -7.3907   34.2946 C.3         1 BC6       0.0369
     25 C11        40.7103   -6.5998   35.4718 C.3         1 BC6       0.0868
     26 O28        40.6167   -7.6364   34.4919 O.3         1 BC6      -0.3877
     27 C12        39.3044   -5.9052   35.6311 C.3         1 BC6      -0.0094
     28 C29        38.1795   -6.9349   35.9490 C.3         1 BC6      -0.0567
     29 C13        39.3002   -4.8881   36.6885 C.2         1 BC6      -0.1009
     30 C14        38.7943   -3.6256   36.7054 C.2         1 BC6      -0.0506
     31 C30        38.1148   -2.9955   35.5694 C.3         1 BC6      -0.0376
     32 C15        38.8931   -2.8284   37.9515 C.3         1 BC6       0.1158
     33 O31        37.5683   -2.5624   38.4680 O.3         1 BC6      -0.2488
     34 C32        36.6419   -1.5841   38.2777 C.2         1 BC6       0.3192
     35 O33        36.8415   -0.5161   37.4735 O.2         1 BC6      -0.3776
     36 N34        35.4728   -1.6777   38.9307 N.am        1 BC6      -0.2762
     37 H1         44.0244    1.0331   36.0302 H           1 BC6       0.0348
     38 H2         43.5850    2.6075   35.4072 H           1 BC6       0.0348
     39 H3         44.1245    1.3316   34.2995 H           1 BC6       0.0348
     40 H4         40.5721   -0.0413   35.4451 H           1 BC6       0.0638
     41 H5         42.1556    0.1114   37.6733 H           1 BC6       0.0437
     42 H6         43.0467   -0.9359   36.5880 H           1 BC6       0.0437
     43 H7         41.8242   -2.4389   37.9285 H           1 BC6       0.0295
     44 H8         41.0852   -2.4224   36.3411 H           1 BC6       0.0295
     45 H9         39.3332   -0.7878   37.3323 H           1 BC6       0.0350
     46 H10        39.0317   -0.8160   39.8206 H           1 BC6       0.0235
     47 H11        40.5667   -0.0928   39.3603 H           1 BC6       0.0235
     48 H12        40.5336   -1.7420   39.9818 H           1 BC6       0.0235
     49 H13        40.2365    1.9051   32.4839 H           1 BC6       0.2240
     50 H14        38.6056    0.2274   32.1109 H           1 BC6       0.0366
     51 H15        37.9602   -3.0587   31.0478 H           1 BC6       0.2475
     52 H16        40.0923   -3.5971   31.2616 H           1 BC6       0.0358
     53 H17        42.6704   -0.6322   32.7752 H           1 BC6       0.0351
     54 H18        43.5795   -2.7213   31.6507 H           1 BC6       0.0424
     55 H19        42.4716   -3.9935   31.2225 H           1 BC6       0.0424
     56 H20        43.7558   -4.7308   33.0833 H           1 BC6       0.0321
     57 H21        43.9585   -3.6030   35.2534 H           1 BC6       0.0234
     58 H22        42.9010   -2.3052   34.6874 H           1 BC6       0.0234
     59 H23        44.4934   -2.5380   33.9576 H           1 BC6       0.0234
     60 H24        41.3525   -5.3955   33.0633 H           1 BC6       0.0295
     61 H25        40.9564   -4.0380   34.0897 H           1 BC6       0.0295
     62 H26        41.9840   -4.9537   35.9812 H           1 BC6       0.0623
     63 H27        44.6492   -7.5398   34.3601 H           1 BC6       0.0524
     64 H28        43.3115   -7.1399   33.2596 H           1 BC6       0.0524
     65 H29        43.0745   -8.3216   34.5796 H           1 BC6       0.0524
     66 H30        40.9493   -7.1067   36.4141 H           1 BC6       0.0637
     67 H31        40.1510   -7.2161   33.7353 H           1 BC6       0.2101
     68 H32        39.0574   -5.4774   34.6686 H           1 BC6       0.0398
     69 H33        37.2177   -6.4298   36.0578 H           1 BC6       0.0247
     70 H34        38.3929   -7.4778   36.8758 H           1 BC6       0.0247
     71 H35        38.0841   -7.6577   35.1400 H           1 BC6       0.0247
     72 H36        39.6853   -5.2240   37.5450 H           1 BC6       0.0246
     73 H37        38.2114   -3.5226   34.6264 H           1 BC6       0.0376
     74 H38        38.5115   -1.9933   35.3955 H           1 BC6       0.0376
     75 H39        37.0484   -2.9120   35.7839 H           1 BC6       0.0376
     76 H40        39.3153   -3.4550   38.7439 H           1 BC6       0.0799
     77 H41        34.8106   -0.9774   38.8359 H           1 BC6       0.1831
     78 H42        35.2693   -2.4636   39.4592 H           1 BC6       0.1831
@<TRIPOS>BOND
     1     1     2   2
     2     2     3   1
     3     2    10  am
     4     3     4   1
     5     3     5   2
     6     5     6   1
     7     6     7   1
     8     7     8   1
     9     8     9   1
    10     8    32   1
    11    10    11   1
    12    11    12  ar
    13    11    17  ar
    14    12    13  ar
    15    13    14   1
    16    13    15  ar
    17    15    16  ar
    18    16    17  ar
    19    16    18   1
    20    18    19   1
    21    19    20   1
    22    19    21   1
    23    21    22   1
    24    22    23   1
    25    22    25   1
    26    23    24   1
    27    25    26   1
    28    25    27   1
    29    27    28   1
    30    27    29   1
    31    29    30   2
    32    30    31   1
    33    30    32   1
    34    32    33   1
    35    33    34   1
    36    34    35   2
    37    34    36  am
    38     4    37   1
    39     4    38   1
    40     4    39   1
    41     5    40   1
    42     6    41   1
    43     6    42   1
    44     7    43   1
    45     7    44   1
    46     8    45   1
    47     9    46   1
    48     9    47   1
    49     9    48   1
    50    10    49   1
    51    12    50   1
    52    14    51   1
    53    15    52   1
    54    17    53   1
    55    18    54   1
    56    18    55   1
    57    19    56   1
    58    20    57   1
    59    20    58   1
    60    20    59   1
    61    21    60   1
    62    21    61   1
    63    22    62   1
    64    24    63   1
    65    24    64   1
    66    24    65   1
    67    25    66   1
    68    26    67   1
    69    27    68   1
    70    28    69   1
    71    28    70   1
    72    28    71   1
    73    29    72   1
    74    31    73   1
    75    31    74   1
    76    31    75   1
    77    32    76   1
    78    36    77   1
    79    36    78   1
@<TRIPOS>SUBSTRUCTURE
     1  BC6      2

