@<TRIPOS>MOLECULE
2vw5_ligand_029
    78    79
SMALL
GAST_HUCK
****
This file was generated by PARSER (from files_GN.cpp)

@<TRIPOS>ATOM
      1 O37        38.5990  -14.2631   40.7761 O.2         1 BC6      -0.3848
      2 C21        38.1839  -13.2956   40.1550 C.2         1 BC6       0.2138
      3 C20        38.9206  -12.1455   40.2403 C.2         1 BC6       0.0175
      4 C36        38.8491  -11.4322   41.5086 C.3         1 BC6      -0.0331
      5 C19        39.6511  -11.7608   39.1689 C.2         1 BC6      -0.0677
      6 C18        40.6729  -10.7190   39.1003 C.3         1 BC6      -0.0250
      7 C17        41.0092  -10.2478   37.6516 C.3         1 BC6      -0.0362
      8 C16        41.6796  -11.2793   36.6755 C.3         1 BC6      -0.0026
      9 C35        43.1364  -11.5793   37.1057 C.3         1 BC6      -0.0578
     10 N22        37.1757  -13.5448   39.3279 N.am        1 BC6      -0.2407
     11 C3         36.5190  -12.6996   38.4849 C.ar        1 BC6       0.0494
     12 C4         36.1830  -13.1595   37.1946 C.ar        1 BC6      -0.0212
     13 C5         35.4072  -12.3738   36.3219 C.ar        1 BC6       0.0678
     14 O36        35.0514  -12.8600   35.1061 O.3         1 BC6      -0.3387
     15 C6         35.0255  -11.0793   36.7153 C.ar        1 BC6      -0.0476
     16 C1         35.4090  -10.5745   37.9800 C.ar        1 BC6      -0.0648
     17 C2         36.0996  -11.4139   38.8757 C.ar        1 BC6      -0.0516
     18 C7         35.2442   -9.1378   38.3062 C.3         1 BC6      -0.0222
     19 C8         36.5392   -8.2949   38.0209 C.3         1 BC6      -0.0322
     20 C25        37.6335   -8.4716   39.1046 C.3         1 BC6      -0.0605
     21 C9         37.0916   -8.5078   36.5751 C.3         1 BC6      -0.0197
     22 C10        38.1014   -7.4714   35.9886 C.3         1 BC6       0.0859
     23 O26        37.6886   -6.1341   36.3706 O.3         1 BC6      -0.3771
     24 C27        38.5050   -5.0136   35.9697 C.3         1 BC6       0.0369
     25 C11        38.2166   -7.5994   34.4284 C.3         1 BC6       0.0868
     26 O28        37.0368   -7.0527   33.8447 O.3         1 BC6      -0.3877
     27 C12        38.5001   -9.0221   33.8214 C.3         1 BC6      -0.0094
     28 C29        38.3889   -9.0655   32.2740 C.3         1 BC6      -0.0567
     29 C13        39.8443   -9.4521   34.1979 C.2         1 BC6      -0.1009
     30 C14        40.2407  -10.6548   34.6686 C.2         1 BC6      -0.0506
     31 C30        39.3308  -11.7995   34.7027 C.3         1 BC6      -0.0376
     32 C15        41.6185  -10.8059   35.1803 C.3         1 BC6       0.1158
     33 O31        42.2911  -11.7177   34.2876 O.3         1 BC6      -0.2488
     34 C32        43.2536  -11.4174   33.3734 C.2         1 BC6       0.3192
     35 O33        43.7196  -10.1606   33.1830 O.2         1 BC6      -0.3776
     36 N34        43.7582  -12.3988   32.6105 N.am        1 BC6      -0.2762
     37 H1         39.4557  -10.5296   41.5491 H           1 BC6       0.0348
     38 H2         39.1632  -12.0755   42.3309 H           1 BC6       0.0348
     39 H3         37.8167  -11.1350   41.6877 H           1 BC6       0.0348
     40 H4         39.4987  -12.2593   38.3251 H           1 BC6       0.0638
     41 H5         41.5713  -11.0725   39.6068 H           1 BC6       0.0437
     42 H6         40.3362   -9.8294   39.6300 H           1 BC6       0.0437
     43 H7         41.6578   -9.3700   37.7216 H           1 BC6       0.0295
     44 H8         40.0693   -9.8996   37.2186 H           1 BC6       0.0295
     45 H9         41.1494  -12.2276   36.7320 H           1 BC6       0.0350
     46 H10        43.5933  -12.3125   36.4398 H           1 BC6       0.0235
     47 H11        43.1512  -11.9975   38.1116 H           1 BC6       0.0235
     48 H12        43.7354  -10.6659   37.0887 H           1 BC6       0.0235
     49 H13        36.9071  -14.4753   39.2657 H           1 BC6       0.2240
     50 H14        36.4947  -14.0849   36.8895 H           1 BC6       0.0366
     51 H15        34.0832  -12.6891   35.0275 H           1 BC6       0.2475
     52 H16        34.5141  -10.4915   36.0519 H           1 BC6       0.0358
     53 H17        36.3165  -11.0762   39.8124 H           1 BC6       0.0351
     54 H18        34.9445   -9.0321   39.3528 H           1 BC6       0.0424
     55 H19        34.4160   -8.7300   37.7180 H           1 BC6       0.0424
     56 H20        36.2228   -7.2585   38.0834 H           1 BC6       0.0321
     57 H21        38.4247   -7.7327   38.9719 H           1 BC6       0.0234
     58 H22        38.0698   -9.4604   39.0400 H           1 BC6       0.0234
     59 H23        37.2133   -8.3472   40.1041 H           1 BC6       0.0234
     60 H24        36.2275   -8.5375   35.9152 H           1 BC6       0.0295
     61 H25        37.5596   -9.4921   36.5351 H           1 BC6       0.0295
     62 H26        39.0803   -7.6663   36.4388 H           1 BC6       0.0623
     63 H27        38.1537   -4.1187   36.4833 H           1 BC6       0.0524
     64 H28        38.4212   -4.8343   34.8931 H           1 BC6       0.0524
     65 H29        39.5538   -5.1662   36.2325 H           1 BC6       0.0524
     66 H30        39.0320   -6.9421   34.1190 H           1 BC6       0.0637
     67 H31        36.2978   -7.5932   34.1731 H           1 BC6       0.2101
     68 H32        37.7387   -9.7123   34.1949 H           1 BC6       0.0398
     69 H33        38.5609  -10.0726   31.8892 H           1 BC6       0.0247
     70 H34        39.1139   -8.3970   31.8230 H           1 BC6       0.0247
     71 H35        37.3983   -8.7584   31.9544 H           1 BC6       0.0247
     72 H36        40.5519   -8.7705   34.0501 H           1 BC6       0.0246
     73 H37        38.6829  -11.8329   33.8226 H           1 BC6       0.0376
     74 H38        38.7087  -11.7450   35.6001 H           1 BC6       0.0376
     75 H39        39.8778  -12.7413   34.7115 H           1 BC6       0.0376
     76 H40        42.1522   -9.8442   35.1608 H           1 BC6       0.0799
     77 H41        44.4456  -12.1991   31.9542 H           1 BC6       0.1831
     78 H42        43.4422  -13.3098   32.7139 H           1 BC6       0.1831
@<TRIPOS>BOND
     1     1     2   2
     2     2     3   1
     3     2    10  am
     4     3     4   1
     5     3     5   2
     6     5     6   1
     7     6     7   1
     8     7     8   1
     9     8     9   1
    10     8    32   1
    11    10    11   1
    12    11    12  ar
    13    11    17  ar
    14    12    13  ar
    15    13    14   1
    16    13    15  ar
    17    15    16  ar
    18    16    17  ar
    19    16    18   1
    20    18    19   1
    21    19    20   1
    22    19    21   1
    23    21    22   1
    24    22    23   1
    25    22    25   1
    26    23    24   1
    27    25    26   1
    28    25    27   1
    29    27    28   1
    30    27    29   1
    31    29    30   2
    32    30    31   1
    33    30    32   1
    34    32    33   1
    35    33    34   1
    36    34    35   2
    37    34    36  am
    38     4    37   1
    39     4    38   1
    40     4    39   1
    41     5    40   1
    42     6    41   1
    43     6    42   1
    44     7    43   1
    45     7    44   1
    46     8    45   1
    47     9    46   1
    48     9    47   1
    49     9    48   1
    50    10    49   1
    51    12    50   1
    52    14    51   1
    53    15    52   1
    54    17    53   1
    55    18    54   1
    56    18    55   1
    57    19    56   1
    58    20    57   1
    59    20    58   1
    60    20    59   1
    61    21    60   1
    62    21    61   1
    63    22    62   1
    64    24    63   1
    65    24    64   1
    66    24    65   1
    67    25    66   1
    68    26    67   1
    69    27    68   1
    70    28    69   1
    71    28    70   1
    72    28    71   1
    73    29    72   1
    74    31    73   1
    75    31    74   1
    76    31    75   1
    77    32    76   1
    78    36    77   1
    79    36    78   1
@<TRIPOS>SUBSTRUCTURE
     1  BC6      2

