@<TRIPOS>MOLECULE
2w66_ligand_002
    35    35
SMALL
GAST_HUCK
****
This file was generated by PARSER (from files_GN.cpp)

@<TRIPOS>ATOM
      1 O9          7.3121  -14.9655    1.1261 O.2         1 HQ6      -0.3974
      2 C9          6.9690  -14.1038    0.3155 C.2         1 HQ6       0.1733
      3 C10         6.6782  -14.5350   -1.0324 C.3         1 HQ6       0.0257
      4 N2          6.8080  -12.8311    0.6599 N.am        1 HQ6      -0.2788
      5 C5          7.0707  -12.2549    1.9549 C.3         1 HQ6       0.1012
      6 C6          7.6140  -10.7998    1.7771 C.3         1 HQ6       0.1200
      7 O6          8.3897  -10.6523    0.5782 O.3         1 HQ6      -0.3841
      8 C4          5.7903  -12.3015    2.8719 C.3         1 HQ6       0.1118
      9 O4          5.1897  -13.5947    2.7725 O.3         1 HQ6      -0.3866
     10 C3          6.0140  -12.0087    4.3873 C.3         1 HQ6       0.1276
     11 O3          4.7539  -12.0576    5.0596 O.3         1 HQ6      -0.3835
     12 C2          6.7328  -10.6523    4.6925 C.3         1 HQ6       0.0301
     13 C8          6.7043  -10.2083    6.1837 C.3         1 HQ6       0.0893
     14 O8          5.5034   -9.5025    6.4754 O.3         1 HQ6      -0.3894
     15 N1          8.1508  -10.7948    4.2978 N.4         1 HQ6       0.2346
     16 C7          8.5192  -10.3230    2.9394 C.3         1 HQ6      -0.0043
     17 H1          6.4789  -13.6909   -1.7032 H           1 HQ6       0.0467
     18 H2          5.7968  -15.1859   -1.0314 H           1 HQ6       0.0467
     19 H3          7.5235  -15.0957   -1.4488 H           1 HQ6       0.0467
     20 H4          6.5414  -12.2126   -0.0598 H           1 HQ6       0.1856
     21 H5          7.8482  -12.8363    2.4513 H           1 HQ6       0.0610
     22 H6          6.7678  -10.1057    1.6755 H           1 HQ6       0.0671
     23 H7          8.5615   -9.6898    0.4953 H           1 HQ6       0.2101
     24 H8          5.0479  -11.5936    2.4881 H           1 HQ6       0.0645
     25 H9          5.8763  -14.2225    3.0948 H           1 HQ6       0.2100
     26 H10         6.6142  -12.8138    4.8124 H           1 HQ6       0.0678
     27 H11         4.9550  -12.2455    6.0080 H           1 HQ6       0.2102
     28 H12         6.2443   -9.8471    4.1331 H           1 HQ6       0.0900
     29 H13         7.5286   -9.5161    6.3825 H           1 HQ6       0.0614
     30 H14         6.7985  -11.0660    6.8526 H           1 HQ6       0.0614
     31 H15         5.7713   -8.7382    7.0370 H           1 HQ6       0.2097
     32 H16         8.3935  -11.7845    4.3474 H           1 HQ6       0.2019
     33 H17         8.7464  -10.3119    4.9766 H           1 HQ6       0.2019
     34 H18         8.5554   -9.2338    2.9576 H           1 HQ6       0.0840
     35 H19         9.5259  -10.6913    2.7685 H           1 HQ6       0.0840
@<TRIPOS>BOND
     1     1     2   2
     2     2     3   1
     3     2     4  am
     4     4     5   1
     5     5     6   1
     6     5     8   1
     7     6     7   1
     8     6    16   1
     9     8     9   1
    10     8    10   1
    11    10    11   1
    12    10    12   1
    13    12    13   1
    14    12    15   1
    15    13    14   1
    16    15    16   1
    17     3    17   1
    18     3    18   1
    19     3    19   1
    20     4    20   1
    21     5    21   1
    22     6    22   1
    23     7    23   1
    24     8    24   1
    25     9    25   1
    26    10    26   1
    27    11    27   1
    28    12    28   1
    29    13    29   1
    30    13    30   1
    31    14    31   1
    32    15    32   1
    33    15    33   1
    34    16    34   1
    35    16    35   1
@<TRIPOS>SUBSTRUCTURE
     1  HQ6      2

