@<TRIPOS>MOLECULE
2w66_ligand_017
    35    35
SMALL
GAST_HUCK
****
This file was generated by PARSER (from files_GN.cpp)

@<TRIPOS>ATOM
      1 O9          7.9221  -16.1022   -2.9436 O.2         1 HQ6      -0.3974
      2 C9          8.3210  -15.9323   -1.8006 C.2         1 HQ6       0.1733
      3 C10         9.7517  -16.0000   -1.5659 C.3         1 HQ6       0.0257
      4 N2          7.4974  -15.7241   -0.7810 N.am        1 HQ6      -0.2788
      5 C5          6.0627  -15.6358   -0.8285 C.3         1 HQ6       0.1012
      6 C6          5.4109  -17.0090   -0.4839 C.3         1 HQ6       0.1200
      7 O6          4.0007  -16.9936   -0.6783 O.3         1 HQ6      -0.3841
      8 C4          5.6038  -14.4194    0.0330 C.3         1 HQ6       0.1118
      9 O4          4.1706  -14.3093   -0.0138 O.3         1 HQ6      -0.3866
     10 C3          6.0874  -14.2995    1.5219 C.3         1 HQ6       0.1276
     11 O3          7.3099  -13.5558    1.5537 O.3         1 HQ6      -0.3835
     12 C2          6.3002  -15.5958    2.3748 C.3         1 HQ6       0.0301
     13 C8          6.2592  -15.2688    3.8907 C.3         1 HQ6       0.0893
     14 O8          5.7651  -16.3646    4.6692 O.3         1 HQ6      -0.3894
     15 N1          5.3385  -16.6841    2.0421 N.4         1 HQ6       0.2346
     16 C7          5.7237  -17.5780    0.9208 C.3         1 HQ6      -0.0043
     17 H1         10.2638  -15.2797   -2.2154 H           1 HQ6       0.0467
     18 H2         10.1158  -17.0043   -1.7938 H           1 HQ6       0.0467
     19 H3         10.0042  -15.7628   -0.5273 H           1 HQ6       0.0467
     20 H4          7.9123  -15.6461    0.0905 H           1 HQ6       0.1856
     21 H5          5.7499  -15.4072   -1.8514 H           1 HQ6       0.0610
     22 H6          5.7920  -17.7286   -1.2105 H           1 HQ6       0.0671
     23 H7          3.5960  -16.8056    0.1960 H           1 HQ6       0.2101
     24 H8          5.9648  -13.5135   -0.4918 H           1 HQ6       0.0645
     25 H9          3.9987  -13.6868   -0.7576 H           1 HQ6       0.2100
     26 H10         5.3468  -13.6648    2.0274 H           1 HQ6       0.0678
     27 H11         7.0835  -12.6436    1.2759 H           1 HQ6       0.2102
     28 H12         7.3151  -15.9657    2.1816 H           1 HQ6       0.0900
     29 H13         5.6174  -14.4034    4.0866 H           1 HQ6       0.0614
     30 H14         7.2792  -15.0325    4.2291 H           1 HQ6       0.0614
     31 H15         5.9811  -16.1036    5.6028 H           1 HQ6       0.2097
     32 H16         4.4131  -16.2945    1.8558 H           1 HQ6       0.2019
     33 H17         5.2589  -17.2807    2.8671 H           1 HQ6       0.2019
     34 H18         6.7840  -17.8522    0.9796 H           1 HQ6       0.0840
     35 H19         5.1600  -18.5072    1.0415 H           1 HQ6       0.0840
@<TRIPOS>BOND
     1     1     2   2
     2     2     3   1
     3     2     4  am
     4     4     5   1
     5     5     6   1
     6     5     8   1
     7     6     7   1
     8     6    16   1
     9     8     9   1
    10     8    10   1
    11    10    11   1
    12    10    12   1
    13    12    13   1
    14    12    15   1
    15    13    14   1
    16    15    16   1
    17     3    17   1
    18     3    18   1
    19     3    19   1
    20     4    20   1
    21     5    21   1
    22     6    22   1
    23     7    23   1
    24     8    24   1
    25     9    25   1
    26    10    26   1
    27    11    27   1
    28    12    28   1
    29    13    29   1
    30    13    30   1
    31    14    31   1
    32    15    32   1
    33    15    33   1
    34    16    34   1
    35    16    35   1
@<TRIPOS>SUBSTRUCTURE
     1  HQ6      2

