@<TRIPOS>MOLECULE
2w66_ligand_055
    35    35
SMALL
GAST_HUCK
****
This file was generated by PARSER (from files_GN.cpp)

@<TRIPOS>ATOM
      1 O9          9.9854  -11.8926    2.6438 O.2         1 HQ6      -0.3974
      2 C9          9.8472  -12.1213    3.8398 C.2         1 HQ6       0.1733
      3 C10        11.0344  -12.1842    4.6614 C.3         1 HQ6       0.0257
      4 N2          8.6416  -12.2440    4.3824 N.am        1 HQ6      -0.2788
      5 C5          7.3522  -12.2074    3.7346 C.3         1 HQ6       0.1012
      6 C6          7.2310  -11.0365    2.6975 C.3         1 HQ6       0.1200
      7 O6          8.0099   -9.9074    3.1182 O.3         1 HQ6      -0.3841
      8 C4          6.9878  -13.6104    3.1330 C.3         1 HQ6       0.1118
      9 O4          7.2645  -14.6272    4.0986 O.3         1 HQ6      -0.3866
     10 C3          5.4995  -13.8305    2.7290 C.3         1 HQ6       0.1276
     11 O3          5.3877  -15.1555    2.2028 O.3         1 HQ6      -0.3835
     12 C2          4.8935  -12.7876    1.7355 C.3         1 HQ6       0.0301
     13 C8          3.5215  -13.2389    1.1462 C.3         1 HQ6       0.0893
     14 O8          3.6965  -14.1808    0.0927 O.3         1 HQ6      -0.3894
     15 N1          4.6911  -11.5050    2.4596 N.4         1 HQ6       0.2346
     16 C7          5.7867  -10.5209    2.4371 C.3         1 HQ6      -0.0043
     17 H1         10.8184  -12.6240    5.6426 H           1 HQ6       0.0467
     18 H2         11.4375  -11.1826    4.8050 H           1 HQ6       0.0467
     19 H3         11.8061  -12.7815    4.1703 H           1 HQ6       0.0467
     20 H4          8.6231  -12.3785    5.3446 H           1 HQ6       0.1856
     21 H5          6.6376  -12.0085    4.5434 H           1 HQ6       0.0610
     22 H6          7.6494  -11.3763    1.7459 H           1 HQ6       0.0671
     23 H7          8.2569   -9.4198    2.2976 H           1 HQ6       0.2101
     24 H8          7.6176  -13.7955    2.2656 H           1 HQ6       0.0645
     25 H9          8.2381  -14.7158    4.1499 H           1 HQ6       0.2100
     26 H10         4.8941  -13.8174    3.6410 H           1 HQ6       0.0678
     27 H11         5.4673  -15.0622    1.2290 H           1 HQ6       0.2102
     28 H12         5.5708  -12.6418    0.8912 H           1 HQ6       0.0900
     29 H13         2.9806  -12.3823    0.7309 H           1 HQ6       0.0614
     30 H14         2.8994  -13.6860    1.9256 H           1 HQ6       0.0614
     31 H15         4.0465  -13.6533   -0.6571 H           1 HQ6       0.2097
     32 H16         4.4768  -11.7240    3.4390 H           1 HQ6       0.2019
     33 H17         3.8699  -11.0341    2.0698 H           1 HQ6       0.2019
     34 H18         5.7675  -10.0296    1.4623 H           1 HQ6       0.0840
     35 H19         5.5338   -9.7704    3.1908 H           1 HQ6       0.0840
@<TRIPOS>BOND
     1     1     2   2
     2     2     3   1
     3     2     4  am
     4     4     5   1
     5     5     6   1
     6     5     8   1
     7     6     7   1
     8     6    16   1
     9     8     9   1
    10     8    10   1
    11    10    11   1
    12    10    12   1
    13    12    13   1
    14    12    15   1
    15    13    14   1
    16    15    16   1
    17     3    17   1
    18     3    18   1
    19     3    19   1
    20     4    20   1
    21     5    21   1
    22     6    22   1
    23     7    23   1
    24     8    24   1
    25     9    25   1
    26    10    26   1
    27    11    27   1
    28    12    28   1
    29    13    29   1
    30    13    30   1
    31    14    31   1
    32    15    32   1
    33    15    33   1
    34    16    34   1
    35    16    35   1
@<TRIPOS>SUBSTRUCTURE
     1  HQ6      2

