@<TRIPOS>MOLECULE
2w66_ligand_036
    35    35
SMALL
GAST_HUCK
****
This file was generated by PARSER (from files_GN.cpp)

@<TRIPOS>ATOM
      1 O9          5.4090  -16.1744    2.3660 O.2         1 HQ6      -0.3974
      2 C9          5.4423  -16.2776    3.5857 C.2         1 HQ6       0.1733
      3 C10         5.4610  -17.6014    4.1495 C.3         1 HQ6       0.0257
      4 N2          5.5581  -15.2268    4.3836 N.am        1 HQ6      -0.2788
      5 C5          5.6603  -13.8314    4.0119 C.3         1 HQ6       0.1012
      6 C6          5.1591  -12.9649    5.2243 C.3         1 HQ6       0.1200
      7 O6          3.8277  -12.5155    4.9675 O.3         1 HQ6      -0.3841
      8 C4          7.1037  -13.5273    3.4939 C.3         1 HQ6       0.1118
      9 O4          7.4926  -14.5478    2.5667 O.3         1 HQ6      -0.3866
     10 C3          7.2595  -12.1575    2.7629 C.3         1 HQ6       0.1276
     11 O3          8.4593  -12.2067    1.9842 O.3         1 HQ6      -0.3835
     12 C2          7.3225  -10.8843    3.6634 C.3         1 HQ6       0.0301
     13 C8          7.4998   -9.5550    2.8442 C.3         1 HQ6       0.0893
     14 O8          7.2680   -9.6784    1.4401 O.3         1 HQ6      -0.3894
     15 N1          6.1536  -10.7404    4.5684 N.4         1 HQ6       0.2346
     16 C7          6.0103  -11.7381    5.6495 C.3         1 HQ6      -0.0043
     17 H1          5.2736  -17.5754    5.2249 H           1 HQ6       0.0467
     18 H2          6.4377  -18.0598    3.9743 H           1 HQ6       0.0467
     19 H3          4.6921  -18.2256    3.6883 H           1 HQ6       0.0467
     20 H4          5.6307  -15.4209    5.3304 H           1 HQ6       0.1856
     21 H5          4.9793  -13.6558    3.1715 H           1 HQ6       0.0610
     22 H6          5.0893  -13.5829    6.1186 H           1 HQ6       0.0671
     23 H7          3.4294  -12.3601    5.8525 H           1 HQ6       0.2101
     24 H8          7.8001  -13.5769    4.3306 H           1 HQ6       0.0645
     25 H9          8.4244  -14.7711    2.8045 H           1 HQ6       0.2100
     26 H10         6.4283  -12.0469    2.0650 H           1 HQ6       0.0678
     27 H11         9.0955  -12.7338    2.5218 H           1 HQ6       0.2102
     28 H12         8.2139  -10.9761    4.2974 H           1 HQ6       0.0900
     29 H13         8.5149   -9.1804    2.9857 H           1 HQ6       0.0614
     30 H14         6.8179   -8.7752    3.1839 H           1 HQ6       0.0614
     31 H15         7.9466   -9.0961    1.0133 H           1 HQ6       0.2097
     32 H16         5.3007  -10.7459    4.0097 H           1 HQ6       0.2019
     33 H17         6.2281   -9.8284    5.0256 H           1 HQ6       0.2019
     34 H18         6.9826  -12.0604    6.0294 H           1 HQ6       0.0840
     35 H19         5.5091  -11.2439    6.4849 H           1 HQ6       0.0840
@<TRIPOS>BOND
     1     1     2   2
     2     2     3   1
     3     2     4  am
     4     4     5   1
     5     5     6   1
     6     5     8   1
     7     6     7   1
     8     6    16   1
     9     8     9   1
    10     8    10   1
    11    10    11   1
    12    10    12   1
    13    12    13   1
    14    12    15   1
    15    13    14   1
    16    15    16   1
    17     3    17   1
    18     3    18   1
    19     3    19   1
    20     4    20   1
    21     5    21   1
    22     6    22   1
    23     7    23   1
    24     8    24   1
    25     9    25   1
    26    10    26   1
    27    11    27   1
    28    12    28   1
    29    13    29   1
    30    13    30   1
    31    14    31   1
    32    15    32   1
    33    15    33   1
    34    16    34   1
    35    16    35   1
@<TRIPOS>SUBSTRUCTURE
     1  HQ6      2

