@<TRIPOS>MOLECULE
2w66_ligand_033
    35    35
SMALL
GAST_HUCK
****
This file was generated by PARSER (from files_GN.cpp)

@<TRIPOS>ATOM
      1 O9          8.1611  -17.4274   -3.6233 O.2         1 HQ6      -0.3974
      2 C9          7.1190  -16.8844   -3.9823 C.2         1 HQ6       0.1733
      3 C10         6.7917  -16.9276   -5.3863 C.3         1 HQ6       0.0257
      4 N2          6.3104  -16.2730   -3.1200 N.am        1 HQ6      -0.2788
      5 C5          6.5802  -15.9569   -1.7456 C.3         1 HQ6       0.1012
      6 C6          6.5464  -14.4036   -1.6472 C.3         1 HQ6       0.1200
      7 O6          7.4999  -13.8573   -2.5535 O.3         1 HQ6      -0.3841
      8 C4          5.5752  -16.7026   -0.8096 C.3         1 HQ6       0.1118
      9 O4          5.5604  -18.0841   -1.2003 O.3         1 HQ6      -0.3866
     10 C3          5.9591  -16.6127    0.6992 C.3         1 HQ6       0.1276
     11 O3          5.3627  -17.6978    1.4197 O.3         1 HQ6      -0.3835
     12 C2          5.5493  -15.2880    1.4317 C.3         1 HQ6       0.0301
     13 C8          6.2123  -15.1602    2.8492 C.3         1 HQ6       0.0893
     14 O8          7.1378  -14.0670    2.9702 O.3         1 HQ6      -0.3894
     15 N1          5.6780  -14.0202    0.6693 N.4         1 HQ6       0.2346
     16 C7          6.8335  -13.8435   -0.2339 C.3         1 HQ6      -0.0043
     17 H1          5.8721  -16.3734   -5.6101 H           1 HQ6       0.0467
     18 H2          6.6539  -17.9657   -5.7124 H           1 HQ6       0.0467
     19 H3          7.6030  -16.4770   -5.9722 H           1 HQ6       0.0467
     20 H4          5.4902  -15.9199   -3.5087 H           1 HQ6       0.1856
     21 H5          7.5864  -16.2908   -1.4876 H           1 HQ6       0.0610
     22 H6          5.5675  -14.0558   -1.9675 H           1 HQ6       0.0671
     23 H7          8.2847  -14.4430   -2.4988 H           1 HQ6       0.2101
     24 H8          4.5629  -16.3090   -0.9487 H           1 HQ6       0.0645
     25 H9          4.7571  -18.4654   -0.7879 H           1 HQ6       0.2100
     26 H10         7.0386  -16.7567    0.8005 H           1 HQ6       0.0678
     27 H11         4.4165  -17.4572    1.5258 H           1 HQ6       0.2102
     28 H12         4.4743  -15.3625    1.6080 H           1 HQ6       0.0900
     29 H13         6.7465  -16.0867    3.1295 H           1 HQ6       0.0614
     30 H14         5.4283  -15.0041    3.6105 H           1 HQ6       0.0614
     31 H15         8.0024  -14.4878    3.1801 H           1 HQ6       0.2097
     32 H16         5.7042  -13.2573    1.3529 H           1 HQ6       0.2019
     33 H17         4.8346  -13.8898    0.1181 H           1 HQ6       0.2019
     34 H18         7.0001  -12.7677   -0.3203 H           1 HQ6       0.0840
     35 H19         7.7411  -14.2903    0.1811 H           1 HQ6       0.0840
@<TRIPOS>BOND
     1     1     2   2
     2     2     3   1
     3     2     4  am
     4     4     5   1
     5     5     6   1
     6     5     8   1
     7     6     7   1
     8     6    16   1
     9     8     9   1
    10     8    10   1
    11    10    11   1
    12    10    12   1
    13    12    13   1
    14    12    15   1
    15    13    14   1
    16    15    16   1
    17     3    17   1
    18     3    18   1
    19     3    19   1
    20     4    20   1
    21     5    21   1
    22     6    22   1
    23     7    23   1
    24     8    24   1
    25     9    25   1
    26    10    26   1
    27    11    27   1
    28    12    28   1
    29    13    29   1
    30    13    30   1
    31    14    31   1
    32    15    32   1
    33    15    33   1
    34    16    34   1
    35    16    35   1
@<TRIPOS>SUBSTRUCTURE
     1  HQ6      2

