@<TRIPOS>MOLECULE
2w66_ligand_011
    35    35
SMALL
GAST_HUCK
****
This file was generated by PARSER (from files_GN.cpp)

@<TRIPOS>ATOM
      1 O9          5.7364  -17.3523   -1.6647 O.2         1 HQ6      -0.3974
      2 C9          4.7594  -17.5509   -0.9473 C.2         1 HQ6       0.1733
      3 C10         3.7540  -18.4865   -1.3876 C.3         1 HQ6       0.0257
      4 N2          4.6500  -16.9703    0.2492 N.am        1 HQ6      -0.2788
      5 C5          5.4778  -15.9476    0.8283 C.3         1 HQ6       0.1012
      6 C6          7.0036  -16.1399    0.5414 C.3         1 HQ6       0.1200
      7 O6          7.3411  -17.5267    0.4148 O.3         1 HQ6      -0.3841
      8 C4          4.9478  -14.5318    0.4179 C.3         1 HQ6       0.1118
      9 O4          3.5122  -14.5373    0.4281 O.3         1 HQ6      -0.3866
     10 C3          5.4156  -13.3434    1.3102 C.3         1 HQ6       0.1276
     11 O3          4.7790  -12.1691    0.8052 O.3         1 HQ6      -0.3835
     12 C2          6.9655  -13.1593    1.3930 C.3         1 HQ6       0.0301
     13 C8          7.4011  -11.7994    2.0091 C.3         1 HQ6       0.0893
     14 O8          6.9944  -10.6601    1.2455 O.3         1 HQ6      -0.3894
     15 N1          7.5418  -14.2432    2.2372 N.4         1 HQ6       0.2346
     16 C7          7.9538  -15.5169    1.6055 C.3         1 HQ6      -0.0043
     17 H1          2.8886  -18.4933   -0.7052 H           1 HQ6       0.0467
     18 H2          4.1945  -19.4909   -1.4133 H           1 HQ6       0.0467
     19 H3          3.3939  -18.2204   -2.3915 H           1 HQ6       0.0467
     20 H4          3.8461  -17.1792    0.7606 H           1 HQ6       0.1856
     21 H5          5.3260  -16.0578    1.9106 H           1 HQ6       0.0610
     22 H6          7.2543  -15.6850   -0.4188 H           1 HQ6       0.0671
     23 H7          7.0482  -17.9484    1.2619 H           1 HQ6       0.2101
     24 H8          5.2404  -14.3269   -0.6161 H           1 HQ6       0.0645
     25 H9          3.2589  -15.1411    1.1599 H           1 HQ6       0.2100
     26 H10         5.0255  -13.4890    2.3191 H           1 HQ6       0.0678
     27 H11         5.1011  -12.0583   -0.1118 H           1 HQ6       0.2102
     28 H12         7.3801  -13.2002    0.3853 H           1 HQ6       0.0900
     29 H13         8.4878  -11.7684    2.0772 H           1 HQ6       0.0614
     30 H14         6.9907  -11.6952    3.0153 H           1 HQ6       0.0614
     31 H15         6.7875  -11.0111    0.3531 H           1 HQ6       0.2097
     32 H16         6.8510  -14.4704    2.9575 H           1 HQ6       0.2019
     33 H17         8.3742  -13.8880    2.7160 H           1 HQ6       0.2019
     34 H18         8.9413  -15.3600    1.1558 H           1 HQ6       0.0840
     35 H19         8.1018  -16.2181    2.4322 H           1 HQ6       0.0840
@<TRIPOS>BOND
     1     1     2   2
     2     2     3   1
     3     2     4  am
     4     4     5   1
     5     5     6   1
     6     5     8   1
     7     6     7   1
     8     6    16   1
     9     8     9   1
    10     8    10   1
    11    10    11   1
    12    10    12   1
    13    12    13   1
    14    12    15   1
    15    13    14   1
    16    15    16   1
    17     3    17   1
    18     3    18   1
    19     3    19   1
    20     4    20   1
    21     5    21   1
    22     6    22   1
    23     7    23   1
    24     8    24   1
    25     9    25   1
    26    10    26   1
    27    11    27   1
    28    12    28   1
    29    13    29   1
    30    13    30   1
    31    14    31   1
    32    15    32   1
    33    15    33   1
    34    16    34   1
    35    16    35   1
@<TRIPOS>SUBSTRUCTURE
     1  HQ6      2

