@<TRIPOS>MOLECULE
2w66_ligand_020
    35    35
SMALL
GAST_HUCK
****
This file was generated by PARSER (from files_GN.cpp)

@<TRIPOS>ATOM
      1 O9          4.8869  -12.0852    2.8248 O.2         1 HQ6      -0.3974
      2 C9          4.6046  -12.1626    1.6356 C.2         1 HQ6       0.1733
      3 C10         3.8609  -11.0798    1.0495 C.3         1 HQ6       0.0257
      4 N2          4.9143  -13.2253    0.8983 N.am        1 HQ6      -0.2788
      5 C5          5.6559  -14.4112    1.2686 C.3         1 HQ6       0.1012
      6 C6          7.0810  -14.3172    0.6451 C.3         1 HQ6       0.1200
      7 O6          6.9982  -13.9999   -0.7475 O.3         1 HQ6      -0.3841
      8 C4          5.6198  -14.7718    2.7904 C.3         1 HQ6       0.1118
      9 O4          4.2976  -14.5148    3.2571 O.3         1 HQ6      -0.3866
     10 C3          5.9612  -16.2603    3.1297 C.3         1 HQ6       0.1276
     11 O3          5.4887  -16.5733    4.4439 O.3         1 HQ6      -0.3835
     12 C2          7.4686  -16.6797    3.0485 C.3         1 HQ6       0.0301
     13 C8          7.6065  -18.2072    2.7565 C.3         1 HQ6       0.0893
     14 O8          8.9658  -18.5925    2.5828 O.3         1 HQ6      -0.3894
     15 N1          8.3497  -15.9023    2.1345 N.4         1 HQ6       0.2346
     16 C7          7.8988  -15.6289    0.7546 C.3         1 HQ6      -0.0043
     17 H1          3.7438  -11.2175   -0.0280 H           1 HQ6       0.0467
     18 H2          4.3973  -10.1442    1.2178 H           1 HQ6       0.0467
     19 H3          2.8677  -11.0191    1.5107 H           1 HQ6       0.0467
     20 H4          4.6777  -13.1602   -0.0465 H           1 HQ6       0.1856
     21 H5          5.1414  -15.2164    0.7312 H           1 HQ6       0.0610
     22 H6          7.6396  -13.5124    1.1387 H           1 HQ6       0.0671
     23 H7          6.7862  -13.0436   -0.7862 H           1 HQ6       0.2101
     24 H8          6.3050  -14.1266    3.3493 H           1 HQ6       0.0645
     25 H9          3.7214  -15.1515    2.7717 H           1 HQ6       0.2100
     26 H10         5.3735  -16.8777    2.4455 H           1 HQ6       0.0678
     27 H11         6.0023  -16.0133    5.0655 H           1 HQ6       0.2102
     28 H12         7.9172  -16.5155    4.0368 H           1 HQ6       0.0900
     29 H13         7.0449  -18.4682    1.8538 H           1 HQ6       0.0614
     30 H14         7.1978  -18.7753    3.5969 H           1 HQ6       0.0614
     31 H15         8.9286  -19.5552    2.3988 H           1 HQ6       0.2097
     32 H16         9.2240  -16.4260    2.0551 H           1 HQ6       0.2019
     33 H17         8.5836  -15.0141    2.5869 H           1 HQ6       0.2019
     34 H18         8.8061  -15.5203    0.1511 H           1 HQ6       0.0840
     35 H19         7.3367  -16.4705    0.3389 H           1 HQ6       0.0840
@<TRIPOS>BOND
     1     1     2   2
     2     2     3   1
     3     2     4  am
     4     4     5   1
     5     5     6   1
     6     5     8   1
     7     6     7   1
     8     6    16   1
     9     8     9   1
    10     8    10   1
    11    10    11   1
    12    10    12   1
    13    12    13   1
    14    12    15   1
    15    13    14   1
    16    15    16   1
    17     3    17   1
    18     3    18   1
    19     3    19   1
    20     4    20   1
    21     5    21   1
    22     6    22   1
    23     7    23   1
    24     8    24   1
    25     9    25   1
    26    10    26   1
    27    11    27   1
    28    12    28   1
    29    13    29   1
    30    13    30   1
    31    14    31   1
    32    15    32   1
    33    15    33   1
    34    16    34   1
    35    16    35   1
@<TRIPOS>SUBSTRUCTURE
     1  HQ6      2

