@<TRIPOS>MOLECULE
2w66_ligand_044
    35    35
SMALL
GAST_HUCK
****
This file was generated by PARSER (from files_GN.cpp)

@<TRIPOS>ATOM
      1 O9          5.8509  -16.4954   -0.6938 O.2         1 HQ6      -0.3974
      2 C9          5.7964  -15.3466   -1.1125 C.2         1 HQ6       0.1733
      3 C10         6.2759  -15.0989   -2.4514 C.3         1 HQ6       0.0257
      4 N2          5.2848  -14.3615   -0.3865 N.am        1 HQ6      -0.2788
      5 C5          4.7405  -14.4575    0.9427 C.3         1 HQ6       0.1012
      6 C6          5.7588  -15.0244    1.9866 C.3         1 HQ6       0.1200
      7 O6          5.1481  -15.2014    3.2629 O.3         1 HQ6      -0.3841
      8 C4          4.0508  -13.1058    1.3317 C.3         1 HQ6       0.1118
      9 O4          3.3714  -13.2432    2.5839 O.3         1 HQ6      -0.3866
     10 C3          4.8865  -11.7725    1.3491 C.3         1 HQ6       0.1276
     11 O3          4.5453  -10.9540    0.2210 O.3         1 HQ6      -0.3835
     12 C2          6.4435  -11.9025    1.4120 C.3         1 HQ6       0.0301
     13 C8          7.1369  -10.5221    1.5939 C.3         1 HQ6       0.0893
     14 O8          8.4957  -10.6507    2.0196 O.3         1 HQ6      -0.3894
     15 N1          6.8800  -12.8080    2.5092 N.4         1 HQ6       0.2346
     16 C7          7.0740  -14.2258    2.1475 C.3         1 HQ6      -0.0043
     17 H1          5.6954  -15.6956   -3.1636 H           1 HQ6       0.0467
     18 H2          7.3288  -15.3838   -2.5244 H           1 HQ6       0.0467
     19 H3          6.1845  -14.0463   -2.7295 H           1 HQ6       0.0467
     20 H4          5.2123  -13.4965   -0.8195 H           1 HQ6       0.1856
     21 H5          3.9303  -15.1910    0.8820 H           1 HQ6       0.0610
     22 H6          6.0483  -16.0304    1.6648 H           1 HQ6       0.0671
     23 H7          4.3112  -15.6786    3.0695 H           1 HQ6       0.2101
     24 H8          3.2287  -12.9715    0.6173 H           1 HQ6       0.0645
     25 H9          4.0802  -13.1692    3.2616 H           1 HQ6       0.2100
     26 H10         4.5768  -11.1870    2.2281 H           1 HQ6       0.0678
     27 H11         3.8061  -11.4125   -0.2275 H           1 HQ6       0.2102
     28 H12         6.7950  -12.2792    0.4470 H           1 HQ6       0.0900
     29 H13         6.6049   -9.9245    2.3417 H           1 HQ6       0.0614
     30 H14         7.1350   -9.9738    0.6466 H           1 HQ6       0.0614
     31 H15         9.0025  -10.8488    1.2082 H           1 HQ6       0.2097
     32 H16         6.2082  -12.7485    3.2777 H           1 HQ6       0.2019
     33 H17         7.7756  -12.4735    2.8558 H           1 HQ6       0.2019
     34 H18         7.6717  -14.3059    1.2361 H           1 HQ6       0.0840
     35 H19         7.6554  -14.6845    2.9519 H           1 HQ6       0.0840
@<TRIPOS>BOND
     1     1     2   2
     2     2     3   1
     3     2     4  am
     4     4     5   1
     5     5     6   1
     6     5     8   1
     7     6     7   1
     8     6    16   1
     9     8     9   1
    10     8    10   1
    11    10    11   1
    12    10    12   1
    13    12    13   1
    14    12    15   1
    15    13    14   1
    16    15    16   1
    17     3    17   1
    18     3    18   1
    19     3    19   1
    20     4    20   1
    21     5    21   1
    22     6    22   1
    23     7    23   1
    24     8    24   1
    25     9    25   1
    26    10    26   1
    27    11    27   1
    28    12    28   1
    29    13    29   1
    30    13    30   1
    31    14    31   1
    32    15    32   1
    33    15    33   1
    34    16    34   1
    35    16    35   1
@<TRIPOS>SUBSTRUCTURE
     1  HQ6      2

