@<TRIPOS>MOLECULE
2w66_ligand_030
    35    35
SMALL
GAST_HUCK
****
This file was generated by PARSER (from files_GN.cpp)

@<TRIPOS>ATOM
      1 O9          7.4762  -16.3199    2.2516 O.2         1 HQ6      -0.3974
      2 C9          6.2913  -16.5984    2.4480 C.2         1 HQ6       0.1733
      3 C10         5.8389  -16.7678    3.8034 C.3         1 HQ6       0.0257
      4 N2          5.4770  -16.8503    1.4241 N.am        1 HQ6      -0.2788
      5 C5          5.7539  -16.7360    0.0173 C.3         1 HQ6       0.1012
      6 C6          5.8355  -15.2317   -0.4122 C.3         1 HQ6       0.1200
      7 O6          4.8549  -14.4716    0.3052 O.3         1 HQ6      -0.3841
      8 C4          7.0098  -17.5715   -0.4228 C.3         1 HQ6       0.1118
      9 O4          7.0853  -18.7705    0.3540 O.3         1 HQ6      -0.3866
     10 C3          7.0546  -17.9825   -1.9272 C.3         1 HQ6       0.1276
     11 O3          8.2238  -18.7747   -2.1508 O.3         1 HQ6      -0.3835
     12 C2          7.0301  -16.8059   -2.9542 C.3         1 HQ6       0.0301
     13 C8          7.1849  -17.2748   -4.4325 C.3         1 HQ6       0.0893
     14 O8          6.1107  -18.1152   -4.8550 O.3         1 HQ6      -0.3894
     15 N1          5.7432  -16.0747   -2.8657 N.4         1 HQ6       0.2346
     16 C7          5.6631  -14.9343   -1.9331 C.3         1 HQ6      -0.0043
     17 H1          4.7514  -16.9060    3.8441 H           1 HQ6       0.0467
     18 H2          6.0925  -15.8848    4.3983 H           1 HQ6       0.0467
     19 H3          6.3165  -17.6470    4.2510 H           1 HQ6       0.0467
     20 H4          4.5713  -17.1234    1.6622 H           1 HQ6       0.1856
     21 H5          4.8749  -17.1726   -0.4727 H           1 HQ6       0.0610
     22 H6          6.8064  -14.8387   -0.0940 H           1 HQ6       0.0671
     23 H7          3.9887  -14.8416    0.0262 H           1 HQ6       0.2101
     24 H8          7.9200  -17.0123   -0.1988 H           1 HQ6       0.0645
     25 H9          6.2774  -19.2825    0.1221 H           1 HQ6       0.2100
     26 H10         6.1945  -18.6307   -2.1276 H           1 HQ6       0.0678
     27 H11         8.9812  -18.1763   -1.9857 H           1 HQ6       0.2102
     28 H12         7.8663  -16.1298   -2.7429 H           1 HQ6       0.0900
     29 H13         8.1303  -17.8090   -4.5656 H           1 HQ6       0.0614
     30 H14         7.2030  -16.4009   -5.0905 H           1 HQ6       0.0614
     31 H15         6.1894  -18.9318   -4.3160 H           1 HQ6       0.2097
     32 H16         5.0041  -16.7416   -2.6323 H           1 HQ6       0.2019
     33 H17         5.5246  -15.6879   -3.7888 H           1 HQ6       0.2019
     34 H18         6.3911  -14.1764   -2.2389 H           1 HQ6       0.0840
     35 H19         4.6755  -14.4998   -2.1054 H           1 HQ6       0.0840
@<TRIPOS>BOND
     1     1     2   2
     2     2     3   1
     3     2     4  am
     4     4     5   1
     5     5     6   1
     6     5     8   1
     7     6     7   1
     8     6    16   1
     9     8     9   1
    10     8    10   1
    11    10    11   1
    12    10    12   1
    13    12    13   1
    14    12    15   1
    15    13    14   1
    16    15    16   1
    17     3    17   1
    18     3    18   1
    19     3    19   1
    20     4    20   1
    21     5    21   1
    22     6    22   1
    23     7    23   1
    24     8    24   1
    25     9    25   1
    26    10    26   1
    27    11    27   1
    28    12    28   1
    29    13    29   1
    30    13    30   1
    31    14    31   1
    32    15    32   1
    33    15    33   1
    34    16    34   1
    35    16    35   1
@<TRIPOS>SUBSTRUCTURE
     1  HQ6      2

