@<TRIPOS>MOLECULE
2w66_ligand_039
    35    35
SMALL
GAST_HUCK
****
This file was generated by PARSER (from files_GN.cpp)

@<TRIPOS>ATOM
      1 O9          5.4115  -14.6423   -2.0937 O.2         1 HQ6      -0.3974
      2 C9          6.5490  -15.0186   -2.3570 C.2         1 HQ6       0.1733
      3 C10         7.5096  -14.0309   -2.7851 C.3         1 HQ6       0.0257
      4 N2          6.8857  -16.3055   -2.3292 N.am        1 HQ6      -0.2788
      5 C5          6.0537  -17.4467   -2.0138 C.3         1 HQ6       0.1012
      6 C6          5.8409  -17.5391   -0.4687 C.3         1 HQ6       0.1200
      7 O6          7.1096  -17.7016    0.1689 O.3         1 HQ6      -0.3841
      8 C4          4.7520  -17.4858   -2.8855 C.3         1 HQ6       0.1118
      9 O4          5.0842  -17.1895   -4.2464 O.3         1 HQ6      -0.3866
     10 C3          3.9750  -18.8413   -2.8430 C.3         1 HQ6       0.1276
     11 O3          3.1957  -19.0025   -4.0308 O.3         1 HQ6      -0.3835
     12 C2          3.0025  -18.9867   -1.6300 C.3         1 HQ6       0.0301
     13 C8          2.4218  -20.4279   -1.4820 C.3         1 HQ6       0.0893
     14 O8          1.0582  -20.3841   -1.0665 O.3         1 HQ6      -0.3894
     15 N1          3.5199  -18.4898   -0.3280 N.4         1 HQ6       0.2346
     16 C7          4.9442  -18.7117    0.0108 C.3         1 HQ6      -0.0043
     17 H1          8.5070  -14.4648   -2.8992 H           1 HQ6       0.0467
     18 H2          7.5630  -13.2246   -2.0514 H           1 HQ6       0.0467
     19 H3          7.2034  -13.6069   -3.7441 H           1 HQ6       0.0467
     20 H4          7.8033  -16.5133   -2.5791 H           1 HQ6       0.1856
     21 H5          6.6463  -18.3218   -2.3092 H           1 HQ6       0.0610
     22 H6          5.3989  -16.6105   -0.0994 H           1 HQ6       0.0671
     23 H7          7.6056  -16.8769   -0.0022 H           1 HQ6       0.2101
     24 H8          4.0785  -16.7013   -2.5462 H           1 HQ6       0.0645
     25 H9          5.2702  -16.2270   -4.2693 H           1 HQ6       0.2100
     26 H10         4.6897  -19.6672   -2.8379 H           1 HQ6       0.0678
     27 H11         2.6052  -18.2185   -4.0662 H           1 HQ6       0.2102
     28 H12         2.1522  -18.3324   -1.8484 H           1 HQ6       0.0900
     29 H13         3.0038  -21.0115   -0.7603 H           1 HQ6       0.0614
     30 H14         2.4405  -20.9619   -2.4349 H           1 HQ6       0.0614
     31 H15         1.0620  -19.9535   -0.1818 H           1 HQ6       0.2097
     32 H16         2.9575  -18.9098    0.4202 H           1 HQ6       0.2019
     33 H17         3.3547  -17.4790   -0.3000 H           1 HQ6       0.2019
     34 H18         4.9985  -18.7609    1.1020 H           1 HQ6       0.0840
     35 H19         5.3090  -19.6681   -0.3808 H           1 HQ6       0.0840
@<TRIPOS>BOND
     1     1     2   2
     2     2     3   1
     3     2     4  am
     4     4     5   1
     5     5     6   1
     6     5     8   1
     7     6     7   1
     8     6    16   1
     9     8     9   1
    10     8    10   1
    11    10    11   1
    12    10    12   1
    13    12    13   1
    14    12    15   1
    15    13    14   1
    16    15    16   1
    17     3    17   1
    18     3    18   1
    19     3    19   1
    20     4    20   1
    21     5    21   1
    22     6    22   1
    23     7    23   1
    24     8    24   1
    25     9    25   1
    26    10    26   1
    27    11    27   1
    28    12    28   1
    29    13    29   1
    30    13    30   1
    31    14    31   1
    32    15    32   1
    33    15    33   1
    34    16    34   1
    35    16    35   1
@<TRIPOS>SUBSTRUCTURE
     1  HQ6      2

