@<TRIPOS>MOLECULE
2w66_ligand_038
    35    35
SMALL
GAST_HUCK
****
This file was generated by PARSER (from files_GN.cpp)

@<TRIPOS>ATOM
      1 O9          9.8096  -16.4751   -2.6683 O.2         1 HQ6      -0.3974
      2 C9          9.1659  -16.3384   -3.7049 C.2         1 HQ6       0.1733
      3 C10         9.8779  -16.0668   -4.9353 C.3         1 HQ6       0.0257
      4 N2          7.8392  -16.4607   -3.7126 N.am        1 HQ6      -0.2788
      5 C5          6.9912  -16.8234   -2.5990 C.3         1 HQ6       0.1012
      6 C6          6.8816  -15.6239   -1.6033 C.3         1 HQ6       0.1200
      7 O6          8.1825  -15.1394   -1.2529 O.3         1 HQ6      -0.3841
      8 C4          5.5890  -17.2822   -3.1385 C.3         1 HQ6       0.1118
      9 O4          5.7311  -17.9331   -4.4115 O.3         1 HQ6      -0.3866
     10 C3          4.8229  -18.2620   -2.1925 C.3         1 HQ6       0.1276
     11 O3          3.6822  -18.7720   -2.8963 O.3         1 HQ6      -0.3835
     12 C2          4.3593  -17.7165   -0.7870 C.3         1 HQ6       0.0301
     13 C8          4.7278  -18.6977    0.3749 C.3         1 HQ6       0.0893
     14 O8          5.1355  -18.0245    1.5705 O.3         1 HQ6      -0.3894
     15 N1          4.7207  -16.3075   -0.4840 N.4         1 HQ6       0.2346
     16 C7          6.1426  -15.9598   -0.2846 C.3         1 HQ6      -0.0043
     17 H1          9.2077  -16.0797   -5.8060 H           1 HQ6       0.0467
     18 H2         10.6430  -16.8347   -5.0726 H           1 HQ6       0.0467
     19 H3         10.3565  -15.0850   -4.8612 H           1 HQ6       0.0467
     20 H4          7.3998  -16.3810   -4.5779 H           1 HQ6       0.1856
     21 H5          7.4580  -17.6706   -2.0771 H           1 HQ6       0.0610
     22 H6          6.3665  -14.7930   -2.0995 H           1 HQ6       0.0671
     23 H7          8.6545  -15.9140   -0.8785 H           1 HQ6       0.2101
     24 H8          4.9686  -16.3983   -3.3283 H           1 HQ6       0.0645
     25 H9          6.4409  -18.6024   -4.2836 H           1 HQ6       0.2100
     26 H10         5.4835  -19.1262   -2.0532 H           1 HQ6       0.0678
     27 H11         3.3009  -18.0034   -3.3686 H           1 HQ6       0.2102
     28 H12         3.2621  -17.6865   -0.7994 H           1 HQ6       0.0900
     29 H13         5.5583  -19.3578    0.0772 H           1 HQ6       0.0614
     30 H14         3.8541  -19.3294    0.6179 H           1 HQ6       0.0614
     31 H15         4.3738  -17.4619    1.8098 H           1 HQ6       0.2097
     32 H16         4.2163  -16.0635    0.3702 H           1 HQ6       0.2019
     33 H17         4.3563  -15.7171   -1.2288 H           1 HQ6       0.2019
     34 H18         6.1606  -15.0694    0.3480 H           1 HQ6       0.0840
     35 H19         6.6746  -16.7514    0.2464 H           1 HQ6       0.0840
@<TRIPOS>BOND
     1     1     2   2
     2     2     3   1
     3     2     4  am
     4     4     5   1
     5     5     6   1
     6     5     8   1
     7     6     7   1
     8     6    16   1
     9     8     9   1
    10     8    10   1
    11    10    11   1
    12    10    12   1
    13    12    13   1
    14    12    15   1
    15    13    14   1
    16    15    16   1
    17     3    17   1
    18     3    18   1
    19     3    19   1
    20     4    20   1
    21     5    21   1
    22     6    22   1
    23     7    23   1
    24     8    24   1
    25     9    25   1
    26    10    26   1
    27    11    27   1
    28    12    28   1
    29    13    29   1
    30    13    30   1
    31    14    31   1
    32    15    32   1
    33    15    33   1
    34    16    34   1
    35    16    35   1
@<TRIPOS>SUBSTRUCTURE
     1  HQ6      2

