@<TRIPOS>MOLECULE
2w66_ligand_035
    35    35
SMALL
GAST_HUCK
****
This file was generated by PARSER (from files_GN.cpp)

@<TRIPOS>ATOM
      1 O9          8.3270  -15.9047    1.9121 O.2         1 HQ6      -0.3974
      2 C9          8.0836  -16.3117    3.0450 C.2         1 HQ6       0.1733
      3 C10         8.8867  -17.3956    3.5569 C.3         1 HQ6       0.0257
      4 N2          7.0662  -15.8362    3.7590 N.am        1 HQ6      -0.2788
      5 C5          6.1325  -14.7917    3.4151 C.3         1 HQ6       0.1012
      6 C6          6.8110  -13.3801    3.4741 C.3         1 HQ6       0.1200
      7 O6          7.7786  -13.3200    4.5229 O.3         1 HQ6      -0.3841
      8 C4          5.4189  -15.1071    2.0508 C.3         1 HQ6       0.1118
      9 O4          5.0325  -16.4892    2.0560 O.3         1 HQ6      -0.3866
     10 C3          4.1672  -14.2498    1.6869 C.3         1 HQ6       0.1276
     11 O3          3.6900  -14.6922    0.4149 O.3         1 HQ6      -0.3835
     12 C2          4.4307  -12.7074    1.6595 C.3         1 HQ6       0.0301
     13 C8          3.3053  -11.9085    0.9455 C.3         1 HQ6       0.0893
     14 O8          3.1299  -10.6130    1.5279 O.3         1 HQ6      -0.3894
     15 N1          4.5152  -12.2389    3.0652 N.4         1 HQ6       0.2346
     16 C7          5.8385  -12.1919    3.7194 C.3         1 HQ6      -0.0043
     17 H1          8.6787  -17.5877    4.6158 H           1 HQ6       0.0467
     18 H2          9.9487  -17.1512    3.4632 H           1 HQ6       0.0467
     19 H3          8.6743  -18.3024    2.9838 H           1 HQ6       0.0467
     20 H4          6.9350  -16.2453    4.6344 H           1 HQ6       0.1856
     21 H5          5.3686  -14.8298    4.2020 H           1 HQ6       0.0610
     22 H6          7.3450  -13.2011    2.5303 H           1 HQ6       0.0671
     23 H7          8.6410  -13.4276    4.0754 H           1 HQ6       0.2101
     24 H8          6.1388  -14.9821    1.2385 H           1 HQ6       0.0645
     25 H9          4.9407  -16.7424    1.1143 H           1 HQ6       0.2100
     26 H10         3.3710  -14.4576    2.4142 H           1 HQ6       0.0678
     27 H11         3.2216  -15.5238    0.6104 H           1 HQ6       0.2102
     28 H12         5.3587  -12.5019    1.1157 H           1 HQ6       0.0900
     29 H13         2.3543  -12.4492    1.0170 H           1 HQ6       0.0614
     30 H14         3.5472  -11.7723   -0.1126 H           1 HQ6       0.0614
     31 H15         3.8150  -10.0557    1.1007 H           1 HQ6       0.2097
     32 H16         3.9038  -12.8368    3.6340 H           1 HQ6       0.2019
     33 H17         4.1378  -11.2920    3.1192 H           1 HQ6       0.2019
     34 H18         6.3274  -11.2670    3.4141 H           1 HQ6       0.0840
     35 H19         5.6366  -12.1123    4.7902 H           1 HQ6       0.0840
@<TRIPOS>BOND
     1     1     2   2
     2     2     3   1
     3     2     4  am
     4     4     5   1
     5     5     6   1
     6     5     8   1
     7     6     7   1
     8     6    16   1
     9     8     9   1
    10     8    10   1
    11    10    11   1
    12    10    12   1
    13    12    13   1
    14    12    15   1
    15    13    14   1
    16    15    16   1
    17     3    17   1
    18     3    18   1
    19     3    19   1
    20     4    20   1
    21     5    21   1
    22     6    22   1
    23     7    23   1
    24     8    24   1
    25     9    25   1
    26    10    26   1
    27    11    27   1
    28    12    28   1
    29    13    29   1
    30    13    30   1
    31    14    31   1
    32    15    32   1
    33    15    33   1
    34    16    34   1
    35    16    35   1
@<TRIPOS>SUBSTRUCTURE
     1  HQ6      2

