@<TRIPOS>MOLECULE
2w66_ligand_014
    35    35
SMALL
GAST_HUCK
****
This file was generated by PARSER (from files_GN.cpp)

@<TRIPOS>ATOM
      1 O9          5.8792  -11.0933    5.5122 O.2         1 HQ6      -0.3974
      2 C9          7.0096  -11.5698    5.5104 C.2         1 HQ6       0.1733
      3 C10         7.9237  -11.0895    6.5184 C.3         1 HQ6       0.0257
      4 N2          7.4661  -12.3599    4.5493 N.am        1 HQ6      -0.2788
      5 C5          6.7886  -12.9567    3.4249 C.3         1 HQ6       0.1012
      6 C6          6.2251  -14.3630    3.8167 C.3         1 HQ6       0.1200
      7 O6          7.2347  -15.1082    4.5025 O.3         1 HQ6      -0.3841
      8 C4          5.7141  -12.0420    2.7471 C.3         1 HQ6       0.1118
      9 O4          6.1028  -10.6718    2.8908 O.3         1 HQ6      -0.3866
     10 C3          5.5205  -12.2845    1.2123 C.3         1 HQ6       0.1276
     11 O3          4.5859  -11.3015    0.7370 O.3         1 HQ6      -0.3835
     12 C2          5.0349  -13.6986    0.7085 C.3         1 HQ6       0.0301
     13 C8          5.9060  -14.2992   -0.4556 C.3         1 HQ6       0.0893
     14 O8          5.1147  -14.9578   -1.4481 O.3         1 HQ6      -0.3894
     15 N1          4.6886  -14.6590    1.7976 N.4         1 HQ6       0.2346
     16 C7          5.7366  -15.2555    2.6481 C.3         1 HQ6      -0.0043
     17 H1          8.8355  -11.6887    6.5370 H           1 HQ6       0.0467
     18 H2          7.4480  -11.1515    7.4978 H           1 HQ6       0.0467
     19 H3          8.1847  -10.0487    6.3084 H           1 HQ6       0.0467
     20 H4          8.4093  -12.5934    4.6187 H           1 HQ6       0.1856
     21 H5          7.5866  -13.1345    2.6997 H           1 HQ6       0.0610
     22 H6          5.4011  -14.2295    4.5178 H           1 HQ6       0.0671
     23 H7          8.0967  -14.8362    4.1181 H           1 HQ6       0.2101
     24 H8          4.7541  -12.1757    3.2390 H           1 HQ6       0.0645
     25 H9          5.2998  -10.1953    3.2138 H           1 HQ6       0.2100
     26 H10         6.4853  -12.0482    0.7548 H           1 HQ6       0.0678
     27 H11         5.0483  -10.4383    0.7860 H           1 HQ6       0.2102
     28 H12         4.0501  -13.5257    0.2452 H           1 HQ6       0.0900
     29 H13         6.6682  -14.9973   -0.0896 H           1 HQ6       0.0614
     30 H14         6.4464  -13.5020   -0.9681 H           1 HQ6       0.0614
     31 H15         4.6745  -15.6928   -0.9901 H           1 HQ6       0.2097
     32 H16         4.1682  -15.4386    1.3773 H           1 HQ6       0.2019
     33 H17         4.0222  -14.1822    2.4170 H           1 HQ6       0.2019
     34 H18         5.2801  -16.1536    3.0909 H           1 HQ6       0.0840
     35 H19         6.5991  -15.5983    2.0751 H           1 HQ6       0.0840
@<TRIPOS>BOND
     1     1     2   2
     2     2     3   1
     3     2     4  am
     4     4     5   1
     5     5     6   1
     6     5     8   1
     7     6     7   1
     8     6    16   1
     9     8     9   1
    10     8    10   1
    11    10    11   1
    12    10    12   1
    13    12    13   1
    14    12    15   1
    15    13    14   1
    16    15    16   1
    17     3    17   1
    18     3    18   1
    19     3    19   1
    20     4    20   1
    21     5    21   1
    22     6    22   1
    23     7    23   1
    24     8    24   1
    25     9    25   1
    26    10    26   1
    27    11    27   1
    28    12    28   1
    29    13    29   1
    30    13    30   1
    31    14    31   1
    32    15    32   1
    33    15    33   1
    34    16    34   1
    35    16    35   1
@<TRIPOS>SUBSTRUCTURE
     1  HQ6      2

