@<TRIPOS>MOLECULE
2w66_ligand_063
    35    35
SMALL
GAST_HUCK
****
This file was generated by PARSER (from files_GN.cpp)

@<TRIPOS>ATOM
      1 O9          7.4436   -9.6756    1.1863 O.2         1 HQ6      -0.3974
      2 C9          8.4827  -10.3028    1.3575 C.2         1 HQ6       0.1733
      3 C10         9.5208  -10.1986    0.3658 C.3         1 HQ6       0.0257
      4 N2          8.6726  -11.0793    2.4099 N.am        1 HQ6      -0.2788
      5 C5          7.7725  -11.3378    3.4910 C.3         1 HQ6       0.1012
      6 C6          7.3890  -10.0017    4.2099 C.3         1 HQ6       0.1200
      7 O6          8.5301   -9.1389    4.2859 O.3         1 HQ6      -0.3841
      8 C4          6.5449  -12.1710    3.0003 C.3         1 HQ6       0.1118
      9 O4          6.9929  -13.1566    2.0571 O.3         1 HQ6      -0.3866
     10 C3          5.7352  -12.9226    4.1064 C.3         1 HQ6       0.1276
     11 O3          4.6655  -13.6340    3.4802 O.3         1 HQ6      -0.3835
     12 C2          5.1602  -11.9682    5.1984 C.3         1 HQ6       0.0301
     13 C8          4.1220  -12.6305    6.1341 C.3         1 HQ6       0.0893
     14 O8          3.8757  -11.8391    7.3048 O.3         1 HQ6      -0.3894
     15 N1          6.2726  -11.4473    6.0338 N.4         1 HQ6       0.2346
     16 C7          6.8134  -10.1245    5.6608 C.3         1 HQ6      -0.0043
     17 H1         10.3996  -10.7960    0.6250 H           1 HQ6       0.0467
     18 H2          9.8292   -9.1528    0.2535 H           1 HQ6       0.0467
     19 H3          9.1359  -10.5645   -0.5868 H           1 HQ6       0.0467
     20 H4          9.5165  -11.5471    2.4529 H           1 HQ6       0.1856
     21 H5          8.3261  -11.9477    4.1895 H           1 HQ6       0.0610
     22 H6          6.6446   -9.4677    3.5918 H           1 HQ6       0.0671
     23 H7          9.0496   -9.4966    5.0337 H           1 HQ6       0.2101
     24 H8          5.8514  -11.5102    2.4538 H           1 HQ6       0.0645
     25 H9          6.2241  -13.3391    1.4702 H           1 HQ6       0.2100
     26 H10         6.3763  -13.6621    4.5859 H           1 HQ6       0.0678
     27 H11         5.0509  -14.4524    3.1244 H           1 HQ6       0.2102
     28 H12         4.6491  -11.1474    4.6790 H           1 HQ6       0.0900
     29 H13         4.4707  -13.6193    6.4482 H           1 HQ6       0.0614
     30 H14         3.1798  -12.7437    5.5937 H           1 HQ6       0.0614
     31 H15         2.9008  -11.8103    7.3919 H           1 HQ6       0.2097
     32 H16         7.0496  -12.1162    6.0182 H           1 HQ6       0.2019
     33 H17         5.9470  -11.3504    7.0009 H           1 HQ6       0.2019
     34 H18         6.0121   -9.3755    5.8002 H           1 HQ6       0.0840
     35 H19         7.5899   -9.8840    6.4103 H           1 HQ6       0.0840
@<TRIPOS>BOND
     1     1     2   2
     2     2     3   1
     3     2     4  am
     4     4     5   1
     5     5     6   1
     6     5     8   1
     7     6     7   1
     8     6    16   1
     9     8     9   1
    10     8    10   1
    11    10    11   1
    12    10    12   1
    13    12    13   1
    14    12    15   1
    15    13    14   1
    16    15    16   1
    17     3    17   1
    18     3    18   1
    19     3    19   1
    20     4    20   1
    21     5    21   1
    22     6    22   1
    23     7    23   1
    24     8    24   1
    25     9    25   1
    26    10    26   1
    27    11    27   1
    28    12    28   1
    29    13    29   1
    30    13    30   1
    31    14    31   1
    32    15    32   1
    33    15    33   1
    34    16    34   1
    35    16    35   1
@<TRIPOS>SUBSTRUCTURE
     1  HQ6      2

