@<TRIPOS>MOLECULE
2w66_ligand_037
    35    35
SMALL
GAST_HUCK
****
This file was generated by PARSER (from files_GN.cpp)

@<TRIPOS>ATOM
      1 O9          6.4111  -15.7165    0.6895 O.2         1 HQ6      -0.3974
      2 C9          5.2707  -15.2729    0.6472 C.2         1 HQ6       0.1733
      3 C10         4.2565  -16.1137    0.0576 C.3         1 HQ6       0.0257
      4 N2          4.9779  -14.0623    1.1089 N.am        1 HQ6      -0.2788
      5 C5          5.8989  -13.1455    1.7380 C.3         1 HQ6       0.1012
      6 C6          6.5645  -12.2635    0.6413 C.3         1 HQ6       0.1200
      7 O6          7.2077  -13.0630   -0.3527 O.3         1 HQ6      -0.3841
      8 C4          5.1641  -12.3165    2.8477 C.3         1 HQ6       0.1118
      9 O4          4.3089  -13.2042    3.5693 O.3         1 HQ6      -0.3866
     10 C3          6.1284  -11.6158    3.8613 C.3         1 HQ6       0.1276
     11 O3          5.4321  -11.3234    5.0793 O.3         1 HQ6      -0.3835
     12 C2          6.7922  -10.2828    3.3690 C.3         1 HQ6       0.0301
     13 C8          8.1175   -9.9837    4.1214 C.3         1 HQ6       0.0893
     14 O8          7.8714   -9.7332    5.5020 O.3         1 HQ6      -0.3894
     15 N1          7.0008  -10.1639    1.9046 N.4         1 HQ6       0.2346
     16 C7          7.6298  -11.2817    1.1826 C.3         1 HQ6      -0.0043
     17 H1          3.2713  -15.6435    0.0928 H           1 HQ6       0.0467
     18 H2          4.2096  -17.0643    0.5939 H           1 HQ6       0.0467
     19 H3          4.5106  -16.3138   -0.9848 H           1 HQ6       0.0467
     20 H4          4.0504  -13.7807    1.0447 H           1 HQ6       0.1856
     21 H5          6.6869  -13.7240    2.2319 H           1 HQ6       0.0610
     22 H6          5.7804  -11.6916    0.1394 H           1 HQ6       0.0671
     23 H7          6.4888  -13.5002   -0.8535 H           1 HQ6       0.2101
     24 H8          4.5126  -11.5680    2.3881 H           1 HQ6       0.0645
     25 H9          4.8993  -13.9235    3.8784 H           1 HQ6       0.2100
     26 H10         6.9077  -12.3402    4.1168 H           1 HQ6       0.0678
     27 H11         5.9384  -11.7635    5.7968 H           1 HQ6       0.2102
     28 H12         6.1056   -9.4616    3.6023 H           1 HQ6       0.0900
     29 H13         8.6055   -9.1067    3.6911 H           1 HQ6       0.0614
     30 H14         8.8017  -10.8300    4.0358 H           1 HQ6       0.0614
     31 H15         8.7540   -9.7456    5.9258 H           1 HQ6       0.2097
     32 H16         7.5765   -9.3352    1.7247 H           1 HQ6       0.2019
     33 H17         6.0858  -10.0031    1.4784 H           1 HQ6       0.2019
     34 H18         8.1569  -10.8366    0.3356 H           1 HQ6       0.0840
     35 H19         8.3671  -11.8014    1.7992 H           1 HQ6       0.0840
@<TRIPOS>BOND
     1     1     2   2
     2     2     3   1
     3     2     4  am
     4     4     5   1
     5     5     6   1
     6     5     8   1
     7     6     7   1
     8     6    16   1
     9     8     9   1
    10     8    10   1
    11    10    11   1
    12    10    12   1
    13    12    13   1
    14    12    15   1
    15    13    14   1
    16    15    16   1
    17     3    17   1
    18     3    18   1
    19     3    19   1
    20     4    20   1
    21     5    21   1
    22     6    22   1
    23     7    23   1
    24     8    24   1
    25     9    25   1
    26    10    26   1
    27    11    27   1
    28    12    28   1
    29    13    29   1
    30    13    30   1
    31    14    31   1
    32    15    32   1
    33    15    33   1
    34    16    34   1
    35    16    35   1
@<TRIPOS>SUBSTRUCTURE
     1  HQ6      2

