@<TRIPOS>MOLECULE
2w66_ligand_029
    35    35
SMALL
GAST_HUCK
****
This file was generated by PARSER (from files_GN.cpp)

@<TRIPOS>ATOM
      1 O9          4.9590  -15.9422    3.4327 O.2         1 HQ6      -0.3974
      2 C9          6.0857  -16.2618    3.7817 C.2         1 HQ6       0.1733
      3 C10         6.3380  -17.6474    4.0896 C.3         1 HQ6       0.0257
      4 N2          7.0517  -15.3581    3.9253 N.am        1 HQ6      -0.2788
      5 C5          7.0128  -13.9501    3.6435 C.3         1 HQ6       0.1012
      6 C6          7.0129  -13.7016    2.1056 C.3         1 HQ6       0.1200
      7 O6          8.0092  -14.5286    1.4953 O.3         1 HQ6      -0.3841
      8 C4          5.8789  -13.1767    4.4084 C.3         1 HQ6       0.1118
      9 O4          5.5330  -13.8644    5.6075 O.3         1 HQ6      -0.3866
     10 C3          6.2817  -11.7182    4.8146 C.3         1 HQ6       0.1276
     11 O3          5.2745  -11.1504    5.6563 O.3         1 HQ6      -0.3835
     12 C2          6.5622  -10.7080    3.6436 C.3         1 HQ6       0.0301
     13 C8          7.9079   -9.9467    3.8239 C.3         1 HQ6       0.0893
     14 O8          8.0754   -9.4359    5.1488 O.3         1 HQ6      -0.3894
     15 N1          6.3776  -11.2367    2.2578 N.4         1 HQ6       0.2346
     16 C7          7.3089  -12.2382    1.6971 C.3         1 HQ6      -0.0043
     17 H1          7.3918  -17.8306    4.3101 H           1 HQ6       0.0467
     18 H2          6.0515  -18.2791    3.2455 H           1 HQ6       0.0467
     19 H3          5.7445  -17.9320    4.9599 H           1 HQ6       0.0467
     20 H4          7.9068  -15.6955    4.2492 H           1 HQ6       0.1856
     21 H5          7.9696  -13.5836    4.0116 H           1 HQ6       0.0610
     22 H6          6.0473  -13.9983    1.6872 H           1 HQ6       0.0671
     23 H7          8.8147  -14.4126    2.0501 H           1 HQ6       0.2101
     24 H8          4.9711  -13.1371    3.8038 H           1 HQ6       0.0645
     25 H9          4.8531  -13.3070    6.0431 H           1 HQ6       0.2100
     26 H10         7.1743  -11.8076    5.4423 H           1 HQ6       0.0678
     27 H11         5.5671  -11.3135    6.5792 H           1 HQ6       0.2102
     28 H12         5.7951   -9.9276    3.6942 H           1 HQ6       0.0900
     29 H13         7.9441   -9.1001    3.1339 H           1 HQ6       0.0614
     30 H14         8.7562  -10.6013    3.6140 H           1 HQ6       0.0614
     31 H15         8.7777   -9.9857    5.5597 H           1 HQ6       0.2097
     32 H16         6.4246  -10.4243    1.6368 H           1 HQ6       0.2019
     33 H17         5.4317  -11.6134    2.1890 H           1 HQ6       0.2019
     34 H18         7.2175  -12.1789    0.6102 H           1 HQ6       0.0840
     35 H19         8.3431  -11.9894    1.9392 H           1 HQ6       0.0840
@<TRIPOS>BOND
     1     1     2   2
     2     2     3   1
     3     2     4  am
     4     4     5   1
     5     5     6   1
     6     5     8   1
     7     6     7   1
     8     6    16   1
     9     8     9   1
    10     8    10   1
    11    10    11   1
    12    10    12   1
    13    12    13   1
    14    12    15   1
    15    13    14   1
    16    15    16   1
    17     3    17   1
    18     3    18   1
    19     3    19   1
    20     4    20   1
    21     5    21   1
    22     6    22   1
    23     7    23   1
    24     8    24   1
    25     9    25   1
    26    10    26   1
    27    11    27   1
    28    12    28   1
    29    13    29   1
    30    13    30   1
    31    14    31   1
    32    15    32   1
    33    15    33   1
    34    16    34   1
    35    16    35   1
@<TRIPOS>SUBSTRUCTURE
     1  HQ6      2

