@<TRIPOS>MOLECULE
2w66_ligand_028
    35    35
SMALL
GAST_HUCK
****
This file was generated by PARSER (from files_GN.cpp)

@<TRIPOS>ATOM
      1 O9         10.4577  -18.4712    1.0603 O.2         1 HQ6      -0.3974
      2 C9         10.5779  -17.9434    2.1545 C.2         1 HQ6       0.1733
      3 C10        11.8275  -18.1272    2.8505 C.3         1 HQ6       0.0257
      4 N2          9.6216  -17.2037    2.6995 N.am        1 HQ6      -0.2788
      5 C5          8.3101  -16.9063    2.1657 C.3         1 HQ6       0.1012
      6 C6          7.3951  -16.3587    3.3187 C.3         1 HQ6       0.1200
      7 O6          7.7194  -16.9505    4.5787 O.3         1 HQ6      -0.3841
      8 C4          8.3901  -15.8885    0.9719 C.3         1 HQ6       0.1118
      9 O4          9.4497  -16.2475    0.0785 O.3         1 HQ6      -0.3866
     10 C3          7.1018  -15.7436    0.0981 C.3         1 HQ6       0.1276
     11 O3          7.3919  -14.7811   -0.9229 O.3         1 HQ6      -0.3835
     12 C2          5.7993  -15.3352    0.8585 C.3         1 HQ6       0.0301
     13 C8          4.6193  -14.9414   -0.0951 C.3         1 HQ6       0.0893
     14 O8          3.9149  -13.8077    0.3970 O.3         1 HQ6      -0.3894
     15 N1          5.3639  -16.4681    1.7145 N.4         1 HQ6       0.2346
     16 C7          5.8703  -16.5702    3.0961 C.3         1 HQ6      -0.0043
     17 H1         11.7811  -17.7577    3.8764 H           1 HQ6       0.0467
     18 H2         12.6113  -17.5915    2.3138 H           1 HQ6       0.0467
     19 H3         12.0774  -19.1892    2.8748 H           1 HQ6       0.0467
     20 H4          9.7924  -16.8695    3.5948 H           1 HQ6       0.1856
     21 H5          7.8768  -17.8465    1.8157 H           1 HQ6       0.0610
     22 H6          7.5850  -15.2879    3.4406 H           1 HQ6       0.0671
     23 H7          7.3026  -16.3673    5.2505 H           1 HQ6       0.2101
     24 H8          8.6429  -14.9058    1.3769 H           1 HQ6       0.0645
     25 H9          9.4978  -15.5264   -0.5863 H           1 HQ6       0.2100
     26 H10         6.9275  -16.6933   -0.4123 H           1 HQ6       0.0678
     27 H11         7.1781  -13.9126   -0.5204 H           1 HQ6       0.2102
     28 H12         6.0394  -14.4703    1.4825 H           1 HQ6       0.0900
     29 H13         3.9007  -15.7547   -0.2003 H           1 HQ6       0.0614
     30 H14         4.9590  -14.7065   -1.1016 H           1 HQ6       0.0614
     31 H15         4.0526  -13.0927   -0.2640 H           1 HQ6       0.2097
     32 H16         5.6010  -17.3337    1.2276 H           1 HQ6       0.2019
     33 H17         4.3519  -16.4266    1.7919 H           1 HQ6       0.2019
     34 H18         5.3199  -15.8573    3.7138 H           1 HQ6       0.0840
     35 H19         5.5960  -17.5664    3.4429 H           1 HQ6       0.0840
@<TRIPOS>BOND
     1     1     2   2
     2     2     3   1
     3     2     4  am
     4     4     5   1
     5     5     6   1
     6     5     8   1
     7     6     7   1
     8     6    16   1
     9     8     9   1
    10     8    10   1
    11    10    11   1
    12    10    12   1
    13    12    13   1
    14    12    15   1
    15    13    14   1
    16    15    16   1
    17     3    17   1
    18     3    18   1
    19     3    19   1
    20     4    20   1
    21     5    21   1
    22     6    22   1
    23     7    23   1
    24     8    24   1
    25     9    25   1
    26    10    26   1
    27    11    27   1
    28    12    28   1
    29    13    29   1
    30    13    30   1
    31    14    31   1
    32    15    32   1
    33    15    33   1
    34    16    34   1
    35    16    35   1
@<TRIPOS>SUBSTRUCTURE
     1  HQ6      2

