@<TRIPOS>MOLECULE
2w66_ligand_062
    35    35
SMALL
GAST_HUCK
****
This file was generated by PARSER (from files_GN.cpp)

@<TRIPOS>ATOM
      1 O9          7.4128  -21.0392    2.4557 O.2         1 HQ6      -0.3974
      2 C9          6.8728  -20.8440    1.3743 C.2         1 HQ6       0.1733
      3 C10         6.4483  -21.9973    0.6128 C.3         1 HQ6       0.0257
      4 N2          6.6614  -19.6223    0.9039 N.am        1 HQ6      -0.2788
      5 C5          7.0187  -18.3696    1.5229 C.3         1 HQ6       0.1012
      6 C6          7.9973  -17.6133    0.5658 C.3         1 HQ6       0.1200
      7 O6          8.9116  -18.5148   -0.0671 O.3         1 HQ6      -0.3841
      8 C4          5.6965  -17.5783    1.8030 C.3         1 HQ6       0.1118
      9 O4          4.7661  -18.4454    2.4607 O.3         1 HQ6      -0.3866
     10 C3          5.8180  -16.2831    2.6658 C.3         1 HQ6       0.1276
     11 O3          4.5214  -15.6915    2.7797 O.3         1 HQ6      -0.3835
     12 C2          6.8348  -15.2242    2.1367 C.3         1 HQ6       0.0301
     13 C8          6.7391  -13.8528    2.8643 C.3         1 HQ6       0.0893
     14 O8          6.6810  -13.9918    4.2824 O.3         1 HQ6      -0.3894
     15 N1          8.2088  -15.7434    2.3343 N.4         1 HQ6       0.2346
     16 C7          8.8429  -16.4931    1.2342 C.3         1 HQ6      -0.0043
     17 H1          5.9983  -21.7108   -0.3406 H           1 HQ6       0.0467
     18 H2          5.7105  -22.5638    1.1844 H           1 HQ6       0.0467
     19 H3          7.3067  -22.6403    0.4078 H           1 HQ6       0.0467
     20 H4          6.2136  -19.5614    0.0444 H           1 HQ6       0.1856
     21 H5          7.5268  -18.5417    2.4775 H           1 HQ6       0.0610
     22 H6          7.4125  -17.1659   -0.2430 H           1 HQ6       0.0671
     23 H7          9.3451  -19.0035    0.6645 H           1 HQ6       0.2101
     24 H8          5.2414  -17.3092    0.8449 H           1 HQ6       0.0645
     25 H9          5.1740  -18.6590    3.3276 H           1 HQ6       0.2100
     26 H10         6.1141  -16.5730    3.6786 H           1 HQ6       0.0678
     27 H11         4.1969  -15.5899    1.8596 H           1 HQ6       0.2102
     28 H12         6.6387  -15.0334    1.0756 H           1 HQ6       0.0900
     29 H13         5.8608  -13.2973    2.5293 H           1 HQ6       0.0614
     30 H14         7.6190  -13.2526    2.6206 H           1 HQ6       0.0614
     31 H15         5.7879  -14.3463    4.4739 H           1 HQ6       0.2097
     32 H16         8.2025  -16.3434    3.1624 H           1 HQ6       0.2019
     33 H17         8.8239  -14.9567    2.5372 H           1 HQ6       0.2019
     34 H18         9.1567  -15.7794    0.4682 H           1 HQ6       0.0840
     35 H19         9.7498  -16.9295    1.6585 H           1 HQ6       0.0840
@<TRIPOS>BOND
     1     1     2   2
     2     2     3   1
     3     2     4  am
     4     4     5   1
     5     5     6   1
     6     5     8   1
     7     6     7   1
     8     6    16   1
     9     8     9   1
    10     8    10   1
    11    10    11   1
    12    10    12   1
    13    12    13   1
    14    12    15   1
    15    13    14   1
    16    15    16   1
    17     3    17   1
    18     3    18   1
    19     3    19   1
    20     4    20   1
    21     5    21   1
    22     6    22   1
    23     7    23   1
    24     8    24   1
    25     9    25   1
    26    10    26   1
    27    11    27   1
    28    12    28   1
    29    13    29   1
    30    13    30   1
    31    14    31   1
    32    15    32   1
    33    15    33   1
    34    16    34   1
    35    16    35   1
@<TRIPOS>SUBSTRUCTURE
     1  HQ6      2

