@<TRIPOS>MOLECULE
2w66_ligand_034
    35    35
SMALL
GAST_HUCK
****
This file was generated by PARSER (from files_GN.cpp)

@<TRIPOS>ATOM
      1 O9          6.2793  -11.4741    2.1718 O.2         1 HQ6      -0.3974
      2 C9          7.4150  -11.7770    2.5106 C.2         1 HQ6       0.1733
      3 C10         8.3120  -10.7292    2.9437 C.3         1 HQ6       0.0257
      4 N2          7.8562  -13.0288    2.4382 N.am        1 HQ6      -0.2788
      5 C5          7.1541  -14.2120    1.9955 C.3         1 HQ6       0.1012
      6 C6          6.4858  -14.9151    3.2183 C.3         1 HQ6       0.1200
      7 O6          7.3958  -14.9290    4.3228 O.3         1 HQ6      -0.3841
      8 C4          6.1632  -13.9444    0.8082 C.3         1 HQ6       0.1118
      9 O4          6.7295  -12.9222   -0.0168 O.3         1 HQ6      -0.3866
     10 C3          5.8229  -15.1468   -0.1284 C.3         1 HQ6       0.1276
     11 O3          4.8959  -14.6716   -1.1086 O.3         1 HQ6      -0.3835
     12 C2          5.1800  -16.3876    0.5628 C.3         1 HQ6       0.0301
     13 C8          4.8226  -17.5676   -0.4126 C.3         1 HQ6       0.0893
     14 O8          4.9556  -17.2872   -1.8013 O.3         1 HQ6      -0.3894
     15 N1          6.0891  -16.9253    1.6162 N.4         1 HQ6       0.2346
     16 C7          5.9784  -16.3712    2.9855 C.3         1 HQ6      -0.0043
     17 H1          9.2692  -11.1303    3.2787 H           1 HQ6       0.0467
     18 H2          7.8717  -10.1715    3.7721 H           1 HQ6       0.0467
     19 H3          8.5013  -10.0402    2.1183 H           1 HQ6       0.0467
     20 H4          8.7661  -13.1761    2.7439 H           1 HQ6       0.1856
     21 H5          7.9414  -14.8771    1.6270 H           1 HQ6       0.0610
     22 H6          5.6357  -14.3055    3.5402 H           1 HQ6       0.0671
     23 H7          8.2868  -14.9989    3.9194 H           1 HQ6       0.2101
     24 H8          5.2289  -13.5466    1.2154 H           1 HQ6       0.0645
     25 H9          5.9829  -12.5473   -0.5254 H           1 HQ6       0.2100
     26 H10         6.7314  -15.4729   -0.6432 H           1 HQ6       0.0678
     27 H11         5.4325  -14.2713   -1.8230 H           1 HQ6       0.2102
     28 H12         4.2409  -16.0573    1.0212 H           1 HQ6       0.0900
     29 H13         3.7853  -17.8682   -0.2496 H           1 HQ6       0.0614
     30 H14         5.4460  -18.4429   -0.2219 H           1 HQ6       0.0614
     31 H15         5.9186  -17.1807   -1.9490 H           1 HQ6       0.2097
     32 H16         7.0544  -16.8193    1.2950 H           1 HQ6       0.2019
     33 H17         5.9053  -17.9290    1.7046 H           1 HQ6       0.2019
     34 H18         4.9384  -16.4418    3.3171 H           1 HQ6       0.0840
     35 H19         6.5455  -17.0607    3.6181 H           1 HQ6       0.0840
@<TRIPOS>BOND
     1     1     2   2
     2     2     3   1
     3     2     4  am
     4     4     5   1
     5     5     6   1
     6     5     8   1
     7     6     7   1
     8     6    16   1
     9     8     9   1
    10     8    10   1
    11    10    11   1
    12    10    12   1
    13    12    13   1
    14    12    15   1
    15    13    14   1
    16    15    16   1
    17     3    17   1
    18     3    18   1
    19     3    19   1
    20     4    20   1
    21     5    21   1
    22     6    22   1
    23     7    23   1
    24     8    24   1
    25     9    25   1
    26    10    26   1
    27    11    27   1
    28    12    28   1
    29    13    29   1
    30    13    30   1
    31    14    31   1
    32    15    32   1
    33    15    33   1
    34    16    34   1
    35    16    35   1
@<TRIPOS>SUBSTRUCTURE
     1  HQ6      2

