@<TRIPOS>MOLECULE
2w66_ligand_032
    35    35
SMALL
GAST_HUCK
****
This file was generated by PARSER (from files_GN.cpp)

@<TRIPOS>ATOM
      1 O9          7.2397  -18.3542    2.0895 O.2         1 HQ6      -0.3974
      2 C9          6.0475  -18.0651    2.0184 C.2         1 HQ6       0.1733
      3 C10         5.1210  -19.0999    1.6269 C.3         1 HQ6       0.0257
      4 N2          5.6119  -16.8416    2.2961 N.am        1 HQ6      -0.2788
      5 C5          6.4212  -15.7079    2.6712 C.3         1 HQ6       0.1012
      6 C6          7.0863  -15.1041    1.3812 C.3         1 HQ6       0.1200
      7 O6          8.4689  -15.4720    1.3383 O.3         1 HQ6      -0.3841
      8 C4          5.5571  -14.7442    3.5517 C.3         1 HQ6       0.1118
      9 O4          4.9549  -15.5395    4.5826 O.3         1 HQ6      -0.3866
     10 C3          6.3443  -13.5852    4.2445 C.3         1 HQ6       0.1276
     11 O3          5.5659  -13.0842    5.3342 O.3         1 HQ6      -0.3835
     12 C2          6.7659  -12.3778    3.3531 C.3         1 HQ6       0.0301
     13 C8          7.5497  -11.3052    4.1663 C.3         1 HQ6       0.0893
     14 O8          8.7373  -11.8480    4.7294 O.3         1 HQ6      -0.3894
     15 N1          7.6136  -12.7688    2.2009 N.4         1 HQ6       0.2346
     16 C7          6.9617  -13.5787    1.1456 C.3         1 HQ6      -0.0043
     17 H1          4.0920  -18.7264    1.5717 H           1 HQ6       0.0467
     18 H2          5.1504  -19.9145    2.3583 H           1 HQ6       0.0467
     19 H3          5.3984  -19.4982    0.6447 H           1 HQ6       0.0467
     20 H4          4.6500  -16.6928    2.2162 H           1 HQ6       0.1856
     21 H5          7.2137  -16.0657    3.3385 H           1 HQ6       0.0610
     22 H6          6.6389  -15.5640    0.4960 H           1 HQ6       0.0671
     23 H7          8.8779  -15.0791    2.1411 H           1 HQ6       0.2101
     24 H8          4.7405  -14.3314    2.9578 H           1 HQ6       0.0645
     25 H9          5.6726  -15.7337    5.2200 H           1 HQ6       0.2100
     26 H10         7.2497  -14.0168    4.6745 H           1 HQ6       0.0678
     27 H11         4.7806  -12.6631    4.9212 H           1 HQ6       0.2102
     28 H12         5.8615  -11.8904    2.9746 H           1 HQ6       0.0900
     29 H13         6.9255  -10.9052    4.9678 H           1 HQ6       0.0614
     30 H14         7.8319  -10.4753    3.5174 H           1 HQ6       0.0614
     31 H15         9.1032  -11.1457    5.3032 H           1 HQ6       0.2097
     32 H16         8.4347  -13.2709    2.5511 H           1 HQ6       0.2019
     33 H17         7.9368  -11.9087    1.7514 H           1 HQ6       0.2019
     34 H18         5.9104  -13.3026    1.0212 H           1 HQ6       0.0840
     35 H19         7.4520  -13.3373    0.2035 H           1 HQ6       0.0840
@<TRIPOS>BOND
     1     1     2   2
     2     2     3   1
     3     2     4  am
     4     4     5   1
     5     5     6   1
     6     5     8   1
     7     6     7   1
     8     6    16   1
     9     8     9   1
    10     8    10   1
    11    10    11   1
    12    10    12   1
    13    12    13   1
    14    12    15   1
    15    13    14   1
    16    15    16   1
    17     3    17   1
    18     3    18   1
    19     3    19   1
    20     4    20   1
    21     5    21   1
    22     6    22   1
    23     7    23   1
    24     8    24   1
    25     9    25   1
    26    10    26   1
    27    11    27   1
    28    12    28   1
    29    13    29   1
    30    13    30   1
    31    14    31   1
    32    15    32   1
    33    15    33   1
    34    16    34   1
    35    16    35   1
@<TRIPOS>SUBSTRUCTURE
     1  HQ6      2

