@<TRIPOS>MOLECULE
2w66_ligand_059
    35    35
SMALL
GAST_HUCK
****
This file was generated by PARSER (from files_GN.cpp)

@<TRIPOS>ATOM
      1 O9          7.9396   -8.5132    7.3543 O.2         1 HQ6      -0.3974
      2 C9          7.2147   -9.4498    7.6572 C.2         1 HQ6       0.1733
      3 C10         6.6257   -9.4505    8.9747 C.3         1 HQ6       0.0257
      4 N2          6.9644  -10.4422    6.8079 N.am        1 HQ6      -0.2788
      5 C5          7.4359  -10.5582    5.4491 C.3         1 HQ6       0.1012
      6 C6          8.0174  -11.9904    5.2626 C.3         1 HQ6       0.1200
      7 O6          8.8531  -12.3235    6.3716 O.3         1 HQ6      -0.3841
      8 C4          6.2373  -10.2851    4.4912 C.3         1 HQ6       0.1118
      9 O4          5.5135   -9.1628    4.9970 O.3         1 HQ6      -0.3866
     10 C3          6.5855   -9.9617    3.0090 C.3         1 HQ6       0.1276
     11 O3          5.3390   -9.7487    2.3376 O.3         1 HQ6      -0.3835
     12 C2          7.4109  -11.0279    2.2312 C.3         1 HQ6       0.0301
     13 C8          7.6788  -10.6464    0.7364 C.3         1 HQ6       0.0893
     14 O8          6.9127   -9.5452    0.2542 O.3         1 HQ6      -0.3894
     15 N1          8.7287  -11.2408    2.8841 N.4         1 HQ6       0.2346
     16 C7          8.8269  -12.2479    3.9559 C.3         1 HQ6      -0.0043
     17 H1          5.9716  -10.3083    9.1269 H           1 HQ6       0.0467
     18 H2          6.0408   -8.5395    9.1173 H           1 HQ6       0.0467
     19 H3          7.4110   -9.4831    9.7289 H           1 HQ6       0.0467
     20 H4          6.3582  -11.1337    7.1158 H           1 HQ6       0.1856
     21 H5          8.2224   -9.8262    5.2470 H           1 HQ6       0.0610
     22 H6          7.1877  -12.7008    5.2950 H           1 HQ6       0.0671
     23 H7          9.4301  -11.5407    6.4708 H           1 HQ6       0.2101
     24 H8          5.5572  -11.1416    4.5167 H           1 HQ6       0.0645
     25 H9          4.7516   -9.0730    4.3871 H           1 HQ6       0.2100
     26 H10         7.1371   -9.0186    2.9830 H           1 HQ6       0.0678
     27 H11         4.7782  -10.5311    2.5470 H           1 HQ6       0.2102
     28 H12         6.8433  -11.9620    2.2426 H           1 HQ6       0.0900
     29 H13         7.4661  -11.5169    0.1127 H           1 HQ6       0.0614
     30 H14         8.7230  -10.3782    0.5693 H           1 HQ6       0.0614
     31 H15         6.6183   -9.7983   -0.6455 H           1 HQ6       0.2097
     32 H16         9.0553  -10.3458    3.2522 H           1 HQ6       0.2019
     33 H17         9.3953  -11.5361    2.1684 H           1 HQ6       0.2019
     34 H18         8.5404  -13.2201    3.5456 H           1 HQ6       0.0840
     35 H19         9.8933  -12.3065    4.1965 H           1 HQ6       0.0840
@<TRIPOS>BOND
     1     1     2   2
     2     2     3   1
     3     2     4  am
     4     4     5   1
     5     5     6   1
     6     5     8   1
     7     6     7   1
     8     6    16   1
     9     8     9   1
    10     8    10   1
    11    10    11   1
    12    10    12   1
    13    12    13   1
    14    12    15   1
    15    13    14   1
    16    15    16   1
    17     3    17   1
    18     3    18   1
    19     3    19   1
    20     4    20   1
    21     5    21   1
    22     6    22   1
    23     7    23   1
    24     8    24   1
    25     9    25   1
    26    10    26   1
    27    11    27   1
    28    12    28   1
    29    13    29   1
    30    13    30   1
    31    14    31   1
    32    15    32   1
    33    15    33   1
    34    16    34   1
    35    16    35   1
@<TRIPOS>SUBSTRUCTURE
     1  HQ6      2

