@<TRIPOS>MOLECULE
2w66_ligand_008
    35    35
SMALL
GAST_HUCK
****
This file was generated by PARSER (from files_GN.cpp)

@<TRIPOS>ATOM
      1 O9          7.2084  -16.5338    0.9043 O.2         1 HQ6      -0.3974
      2 C9          6.0060  -16.7075    1.1314 C.2         1 HQ6       0.1733
      3 C10         5.3880  -17.9346    0.6791 C.3         1 HQ6       0.0257
      4 N2          5.2847  -15.8474    1.8541 N.am        1 HQ6      -0.2788
      5 C5          5.6727  -14.5600    2.3731 C.3         1 HQ6       0.1012
      6 C6          7.0987  -14.5463    3.0168 C.3         1 HQ6       0.1200
      7 O6          7.2193  -15.6697    3.8965 O.3         1 HQ6      -0.3841
      8 C4          5.4100  -13.4698    1.2882 C.3         1 HQ6       0.1118
      9 O4          4.0405  -13.5869    0.8542 O.3         1 HQ6      -0.3866
     10 C3          5.6420  -11.9909    1.7358 C.3         1 HQ6       0.1276
     11 O3          4.9574  -11.1464    0.8109 O.3         1 HQ6      -0.3835
     12 C2          7.1621  -11.5973    1.8366 C.3         1 HQ6       0.0301
     13 C8          7.4129  -10.0557    1.8460 C.3         1 HQ6       0.0893
     14 O8          6.9716   -9.3926    0.6624 O.3         1 HQ6      -0.3894
     15 N1          7.9172  -12.1351    3.0040 N.4         1 HQ6       0.2346
     16 C7          7.4051  -13.2537    3.8224 C.3         1 HQ6      -0.0043
     17 H1          4.2873  -17.9086    0.7965 H           1 HQ6       0.0467
     18 H2          5.7807  -18.7840    1.2589 H           1 HQ6       0.0467
     19 H3          5.6146  -18.0888   -0.3852 H           1 HQ6       0.0467
     20 H4          4.3499  -16.0947    1.9912 H           1 HQ6       0.1856
     21 H5          4.9566  -14.3751    3.1821 H           1 HQ6       0.0610
     22 H6          7.8593  -14.6598    2.2351 H           1 HQ6       0.0671
     23 H7          8.1437  -15.6332    4.2280 H           1 HQ6       0.2101
     24 H8          6.0358  -13.6785    0.4110 H           1 HQ6       0.0645
     25 H9          4.0387  -14.2816    0.1590 H           1 HQ6       0.2100
     26 H10         5.1643  -11.8252    2.7036 H           1 HQ6       0.0678
     27 H11         5.2450  -11.4377   -0.0800 H           1 HQ6       0.2102
     28 H12         7.6610  -11.9818    0.9421 H           1 HQ6       0.0900
     29 H13         8.4885   -9.8616    1.9355 H           1 HQ6       0.0614
     30 H14         6.9030   -9.5969    2.6983 H           1 HQ6       0.0614
     31 H15         6.9219  -10.0936   -0.0196 H           1 HQ6       0.2097
     32 H16         8.0701  -11.3610    3.6569 H           1 HQ6       0.2019
     33 H17         8.8387  -12.4269    2.6577 H           1 HQ6       0.2019
     34 H18         8.2034  -13.4605    4.5352 H           1 HQ6       0.0840
     35 H19         6.5315  -12.9267    4.3966 H           1 HQ6       0.0840
@<TRIPOS>BOND
     1     1     2   2
     2     2     3   1
     3     2     4  am
     4     4     5   1
     5     5     6   1
     6     5     8   1
     7     6     7   1
     8     6    16   1
     9     8     9   1
    10     8    10   1
    11    10    11   1
    12    10    12   1
    13    12    13   1
    14    12    15   1
    15    13    14   1
    16    15    16   1
    17     3    17   1
    18     3    18   1
    19     3    19   1
    20     4    20   1
    21     5    21   1
    22     6    22   1
    23     7    23   1
    24     8    24   1
    25     9    25   1
    26    10    26   1
    27    11    27   1
    28    12    28   1
    29    13    29   1
    30    13    30   1
    31    14    31   1
    32    15    32   1
    33    15    33   1
    34    16    34   1
    35    16    35   1
@<TRIPOS>SUBSTRUCTURE
     1  HQ6      2

