@<TRIPOS>MOLECULE
2w66_ligand_048
    35    35
SMALL
GAST_HUCK
****
This file was generated by PARSER (from files_GN.cpp)

@<TRIPOS>ATOM
      1 O9          7.3964  -12.7367    5.6438 O.2         1 HQ6      -0.3974
      2 C9          8.5200  -12.6216    5.1580 C.2         1 HQ6       0.1733
      3 C10         9.6265  -12.6884    6.0748 C.3         1 HQ6       0.0257
      4 N2          8.7168  -12.4004    3.8666 N.am        1 HQ6      -0.2788
      5 C5          7.7135  -12.2153    2.8460 C.3         1 HQ6       0.1012
      6 C6          6.8808  -13.5189    2.5993 C.3         1 HQ6       0.1200
      7 O6          7.6711  -14.7103    2.6793 O.3         1 HQ6      -0.3841
      8 C4          6.8503  -10.9601    3.2078 C.3         1 HQ6       0.1118
      9 O4          7.7186   -9.8847    3.5904 O.3         1 HQ6      -0.3866
     10 C3          5.8817  -10.4174    2.1296 C.3         1 HQ6       0.1276
     11 O3          5.2081   -9.3062    2.7190 O.3         1 HQ6      -0.3835
     12 C2          4.8546  -11.4556    1.5767 C.3         1 HQ6       0.0301
     13 C8          3.6988  -10.7691    0.8016 C.3         1 HQ6       0.0893
     14 O8          2.8043  -11.7107    0.2224 O.3         1 HQ6      -0.3894
     15 N1          5.5642  -12.3772    0.6618 N.4         1 HQ6       0.2346
     16 C7          6.1771  -13.6031    1.2134 C.3         1 HQ6      -0.0043
     17 H1         10.5887  -12.5709    5.5650 H           1 HQ6       0.0467
     18 H2          9.6215  -13.6484    6.5939 H           1 HQ6       0.0467
     19 H3          9.5141  -11.8953    6.8147 H           1 HQ6       0.0467
     20 H4          9.6436  -12.3232    3.5755 H           1 HQ6       0.1856
     21 H5          8.2610  -11.9896    1.9280 H           1 HQ6       0.0610
     22 H6          6.1296  -13.6012    3.3875 H           1 HQ6       0.0671
     23 H7          8.3569  -14.5605    3.3549 H           1 HQ6       0.2101
     24 H8          6.2381  -11.1944    4.0814 H           1 HQ6       0.0645
     25 H9          8.1056   -9.5437    2.7534 H           1 HQ6       0.2100
     26 H10         6.4800  -10.0259    1.3022 H           1 HQ6       0.0678
     27 H11         4.6790   -9.6923    3.4480 H           1 HQ6       0.2102
     28 H12         4.3994  -12.0033    2.4076 H           1 HQ6       0.0900
     29 H13         4.1064  -10.1405    0.0063 H           1 HQ6       0.0614
     30 H14         3.1179  -10.1433    1.4827 H           1 HQ6       0.0614
     31 H15         3.2543  -12.0168   -0.5930 H           1 HQ6       0.2097
     32 H16         6.2800  -11.8393    0.1678 H           1 HQ6       0.2019
     33 H17         4.9136  -12.6716   -0.0646 H           1 HQ6       0.2019
     34 H18         5.4034  -14.3720    1.2667 H           1 HQ6       0.0840
     35 H19         6.9035  -13.9302    0.4633 H           1 HQ6       0.0840
@<TRIPOS>BOND
     1     1     2   2
     2     2     3   1
     3     2     4  am
     4     4     5   1
     5     5     6   1
     6     5     8   1
     7     6     7   1
     8     6    16   1
     9     8     9   1
    10     8    10   1
    11    10    11   1
    12    10    12   1
    13    12    13   1
    14    12    15   1
    15    13    14   1
    16    15    16   1
    17     3    17   1
    18     3    18   1
    19     3    19   1
    20     4    20   1
    21     5    21   1
    22     6    22   1
    23     7    23   1
    24     8    24   1
    25     9    25   1
    26    10    26   1
    27    11    27   1
    28    12    28   1
    29    13    29   1
    30    13    30   1
    31    14    31   1
    32    15    32   1
    33    15    33   1
    34    16    34   1
    35    16    35   1
@<TRIPOS>SUBSTRUCTURE
     1  HQ6      2

