@<TRIPOS>MOLECULE
2w66_ligand_021
    35    35
SMALL
GAST_HUCK
****
This file was generated by PARSER (from files_GN.cpp)

@<TRIPOS>ATOM
      1 O9          4.9371  -11.4394    6.6832 O.2         1 HQ6      -0.3974
      2 C9          6.0189  -11.1178    6.2119 C.2         1 HQ6       0.1733
      3 C10         6.7719  -10.0673    6.8729 C.3         1 HQ6       0.0257
      4 N2          6.5199  -11.7016    5.1323 N.am        1 HQ6      -0.2788
      5 C5          5.9131  -12.7528    4.3422 C.3         1 HQ6       0.1012
      6 C6          4.5709  -12.3135    3.6560 C.3         1 HQ6       0.1200
      7 O6          3.9758  -13.3396    2.8602 O.3         1 HQ6      -0.3841
      8 C4          6.9985  -13.3532    3.3880 C.3         1 HQ6       0.1118
      9 O4          6.4505  -14.4545    2.6485 O.3         1 HQ6      -0.3866
     10 C3          7.7732  -12.3700    2.4311 C.3         1 HQ6       0.1276
     11 O3          8.9888  -11.9604    3.0578 O.3         1 HQ6      -0.3835
     12 C2          7.0757  -11.0669    1.9197 C.3         1 HQ6       0.0301
     13 C8          7.7282  -10.5642    0.5994 C.3         1 HQ6       0.0893
     14 O8          9.1415  -10.4032    0.7158 O.3         1 HQ6      -0.3894
     15 N1          5.6254  -11.2296    1.6305 N.4         1 HQ6       0.2346
     16 C7          4.7043  -11.0551    2.7719 C.3         1 HQ6      -0.0043
     17 H1          6.9899  -10.3722    7.9021 H           1 HQ6       0.0467
     18 H2          6.1648   -9.1532    6.8986 H           1 HQ6       0.0467
     19 H3          7.7088   -9.8485    6.3676 H           1 HQ6       0.0467
     20 H4          7.4001  -11.4069    4.8455 H           1 HQ6       0.1856
     21 H5          5.6560  -13.5657    5.0425 H           1 HQ6       0.0610
     22 H6          3.8630  -12.0832    4.4629 H           1 HQ6       0.0671
     23 H7          4.4828  -14.1675    3.0436 H           1 HQ6       0.2101
     24 H8          7.7475  -13.8123    4.0332 H           1 HQ6       0.0645
     25 H9          6.2451  -14.0935    1.7444 H           1 HQ6       0.2100
     26 H10         8.0681  -12.9624    1.5564 H           1 HQ6       0.0678
     27 H11         9.5724  -12.7492    3.0286 H           1 HQ6       0.2102
     28 H12         7.2140  -10.2657    2.6522 H           1 HQ6       0.0900
     29 H13         7.2942   -9.6171    0.2916 H           1 HQ6       0.0614
     30 H14         7.5592  -11.2946   -0.1887 H           1 HQ6       0.0614
     31 H15         9.3043   -9.4267    0.6425 H           1 HQ6       0.2097
     32 H16         5.4609  -12.1407    1.2008 H           1 HQ6       0.2019
     33 H17         5.3604  -10.5006    0.9515 H           1 HQ6       0.2019
     34 H18         4.9872  -10.1837    3.3863 H           1 HQ6       0.0840
     35 H19         3.7170  -10.8295    2.3590 H           1 HQ6       0.0840
@<TRIPOS>BOND
     1     1     2   2
     2     2     3   1
     3     2     4  am
     4     4     5   1
     5     5     6   1
     6     5     8   1
     7     6     7   1
     8     6    16   1
     9     8     9   1
    10     8    10   1
    11    10    11   1
    12    10    12   1
    13    12    13   1
    14    12    15   1
    15    13    14   1
    16    15    16   1
    17     3    17   1
    18     3    18   1
    19     3    19   1
    20     4    20   1
    21     5    21   1
    22     6    22   1
    23     7    23   1
    24     8    24   1
    25     9    25   1
    26    10    26   1
    27    11    27   1
    28    12    28   1
    29    13    29   1
    30    13    30   1
    31    14    31   1
    32    15    32   1
    33    15    33   1
    34    16    34   1
    35    16    35   1
@<TRIPOS>SUBSTRUCTURE
     1  HQ6      2

