@<TRIPOS>MOLECULE
2w66_ligand_040
    35    35
SMALL
GAST_HUCK
****
This file was generated by PARSER (from files_GN.cpp)

@<TRIPOS>ATOM
      1 O9          4.2882  -11.8339    2.6717 O.2         1 HQ6      -0.3974
      2 C9          4.2271  -12.0527    1.4655 C.2         1 HQ6       0.1733
      3 C10         3.3436  -11.2270    0.6701 C.3         1 HQ6       0.0257
      4 N2          4.9171  -13.0408    0.9034 N.am        1 HQ6      -0.2788
      5 C5          5.8454  -13.9231    1.5671 C.3         1 HQ6       0.1012
      6 C6          5.1843  -14.7721    2.7057 C.3         1 HQ6       0.1200
      7 O6          4.0290  -14.1420    3.2714 O.3         1 HQ6      -0.3841
      8 C4          6.5337  -14.8677    0.5245 C.3         1 HQ6       0.1118
      9 O4          6.8639  -14.1310   -0.6650 O.3         1 HQ6      -0.3866
     10 C3          7.8219  -15.6145    1.0076 C.3         1 HQ6       0.1276
     11 O3          8.2292  -16.4829   -0.0529 O.3         1 HQ6      -0.3835
     12 C2          7.7179  -16.4223    2.3414 C.3         1 HQ6       0.0301
     13 C8          8.9801  -17.2905    2.6186 C.3         1 HQ6       0.0893
     14 O8          8.9908  -17.8268    3.9419 O.3         1 HQ6      -0.3894
     15 N1          7.5510  -15.4756    3.4743 N.4         1 HQ6       0.2346
     16 C7          6.1689  -15.0990    3.8636 C.3         1 HQ6      -0.0043
     17 H1          3.4517  -11.4423   -0.3921 H           1 HQ6       0.0467
     18 H2          3.5716  -10.1775    0.8432 H           1 HQ6       0.0467
     19 H3          2.3112  -11.4223    0.9629 H           1 HQ6       0.0467
     20 H4          4.8423  -13.1125   -0.0661 H           1 HQ6       0.1856
     21 H5          6.6266  -13.2923    1.9905 H           1 HQ6       0.0610
     22 H6          4.8099  -15.7268    2.2963 H           1 HQ6       0.0671
     23 H7          3.3296  -14.2531    2.5859 H           1 HQ6       0.2101
     24 H8          5.8083  -15.6208    0.1951 H           1 HQ6       0.0645
     25 H9          7.0267  -13.2054   -0.3617 H           1 HQ6       0.2100
     26 H10         8.6163  -14.8748    1.1213 H           1 HQ6       0.0678
     27 H11         7.5327  -17.1757   -0.1025 H           1 HQ6       0.2102
     28 H12         6.8717  -17.1121    2.2887 H           1 HQ6       0.0900
     29 H13         9.8869  -16.6975    2.4867 H           1 HQ6       0.0614
     30 H14         9.0160  -18.1326    1.9215 H           1 HQ6       0.0614
     31 H15         8.1640  -18.3364    4.0329 H           1 HQ6       0.2097
     32 H16         8.0847  -14.6364    3.2534 H           1 HQ6       0.2019
     33 H17         8.0049  -15.8642    4.3067 H           1 HQ6       0.2019
     34 H18         5.7504  -15.9098    4.4717 H           1 HQ6       0.0840
     35 H19         6.2493  -14.2189    4.5029 H           1 HQ6       0.0840
@<TRIPOS>BOND
     1     1     2   2
     2     2     3   1
     3     2     4  am
     4     4     5   1
     5     5     6   1
     6     5     8   1
     7     6     7   1
     8     6    16   1
     9     8     9   1
    10     8    10   1
    11    10    11   1
    12    10    12   1
    13    12    13   1
    14    12    15   1
    15    13    14   1
    16    15    16   1
    17     3    17   1
    18     3    18   1
    19     3    19   1
    20     4    20   1
    21     5    21   1
    22     6    22   1
    23     7    23   1
    24     8    24   1
    25     9    25   1
    26    10    26   1
    27    11    27   1
    28    12    28   1
    29    13    29   1
    30    13    30   1
    31    14    31   1
    32    15    32   1
    33    15    33   1
    34    16    34   1
    35    16    35   1
@<TRIPOS>SUBSTRUCTURE
     1  HQ6      2

