@<TRIPOS>MOLECULE
2w66_ligand_042
    35    35
SMALL
GAST_HUCK
****
This file was generated by PARSER (from files_GN.cpp)

@<TRIPOS>ATOM
      1 O9          3.4922  -13.5645    0.6223 O.2         1 HQ6      -0.3974
      2 C9          3.5476  -12.6841    1.4845 C.2         1 HQ6       0.1733
      3 C10         2.8120  -11.4626    1.2540 C.3         1 HQ6       0.0257
      4 N2          4.2999  -12.8209    2.5710 N.am        1 HQ6      -0.2788
      5 C5          5.1647  -13.9255    2.8970 C.3         1 HQ6       0.1012
      6 C6          5.9906  -14.4200    1.6617 C.3         1 HQ6       0.1200
      7 O6          6.7578  -15.5930    1.9571 O.3         1 HQ6      -0.3841
      8 C4          6.0260  -13.5848    4.1588 C.3         1 HQ6       0.1118
      9 O4          6.9422  -14.6460    4.4518 O.3         1 HQ6      -0.3866
     10 C3          6.7842  -12.2190    4.2075 C.3         1 HQ6       0.1276
     11 O3          5.9153  -11.2144    4.7543 O.3         1 HQ6      -0.3835
     12 C2          7.3882  -11.6793    2.8652 C.3         1 HQ6       0.0301
     13 C8          8.5606  -10.6935    3.1372 C.3         1 HQ6       0.0893
     14 O8          9.3266  -10.4392    1.9548 O.3         1 HQ6      -0.3894
     15 N1          7.8952  -12.7379    1.9491 N.4         1 HQ6       0.2346
     16 C7          6.9168  -13.3562    1.0268 C.3         1 HQ6      -0.0043
     17 H1          1.7479  -11.6872    1.1030 H           1 HQ6       0.0467
     18 H2          3.1928  -10.9627    0.3536 H           1 HQ6       0.0467
     19 H3          2.9023  -10.7695    2.1060 H           1 HQ6       0.0467
     20 H4          4.2602  -12.0959    3.2169 H           1 HQ6       0.1856
     21 H5          4.5248  -14.7643    3.1839 H           1 HQ6       0.0610
     22 H6          5.2844  -14.7264    0.8795 H           1 HQ6       0.0671
     23 H7          6.0969  -16.2631    2.2240 H           1 HQ6       0.2101
     24 H8          5.3460  -13.5885    5.0141 H           1 HQ6       0.0645
     25 H9          7.8060  -14.3805    4.0708 H           1 HQ6       0.2100
     26 H10         7.5962  -12.3312    4.9346 H           1 HQ6       0.0678
     27 H11         6.4901  -10.4497    4.9688 H           1 HQ6       0.2102
     28 H12         6.6189  -11.0951    2.3434 H           1 HQ6       0.0900
     29 H13         9.2421  -11.1209    3.8841 H           1 HQ6       0.0614
     30 H14         8.1889   -9.7328    3.5208 H           1 HQ6       0.0614
     31 H15         8.9947   -9.5878    1.6011 H           1 HQ6       0.2097
     32 H16         8.3909  -13.4538    2.4870 H           1 HQ6       0.2019
     33 H17         8.5867  -12.2825    1.3512 H           1 HQ6       0.2019
     34 H18         6.3190  -12.5814    0.5378 H           1 HQ6       0.0840
     35 H19         7.4902  -13.8513    0.2423 H           1 HQ6       0.0840
@<TRIPOS>BOND
     1     1     2   2
     2     2     3   1
     3     2     4  am
     4     4     5   1
     5     5     6   1
     6     5     8   1
     7     6     7   1
     8     6    16   1
     9     8     9   1
    10     8    10   1
    11    10    11   1
    12    10    12   1
    13    12    13   1
    14    12    15   1
    15    13    14   1
    16    15    16   1
    17     3    17   1
    18     3    18   1
    19     3    19   1
    20     4    20   1
    21     5    21   1
    22     6    22   1
    23     7    23   1
    24     8    24   1
    25     9    25   1
    26    10    26   1
    27    11    27   1
    28    12    28   1
    29    13    29   1
    30    13    30   1
    31    14    31   1
    32    15    32   1
    33    15    33   1
    34    16    34   1
    35    16    35   1
@<TRIPOS>SUBSTRUCTURE
     1  HQ6      2

