@<TRIPOS>MOLECULE
2w66_ligand_000
    35    35
SMALL
GAST_HUCK
****
This file was generated by PARSER (from files_GN.cpp)

@<TRIPOS>ATOM
      1 O9          5.8248   -9.9861    5.9829 O.2         1 HQ6      -0.3974
      2 C9          6.9810  -10.3846    5.9758 C.2         1 HQ6       0.1733
      3 C10         7.8123  -10.0000    7.0889 C.3         1 HQ6       0.0257
      4 N2          7.4784  -11.0798    4.9618 N.am        1 HQ6      -0.2788
      5 C5          6.7725  -11.4919    3.7731 C.3         1 HQ6       0.1012
      6 C6          7.1586  -10.5262    2.6111 C.3         1 HQ6       0.1200
      7 O6          7.1156   -9.1663    3.0417 O.3         1 HQ6      -0.3841
      8 C4          7.0809  -12.9840    3.3974 C.3         1 HQ6       0.1118
      9 O4          7.4272  -13.7308    4.5687 O.3         1 HQ6      -0.3866
     10 C3          5.9005  -13.7214    2.6887 C.3         1 HQ6       0.1276
     11 O3          6.3317  -15.0565    2.3952 O.3         1 HQ6      -0.3835
     12 C2          5.3268  -13.0646    1.3790 C.3         1 HQ6       0.0301
     13 C8          3.8187  -12.6855    1.4993 C.3         1 HQ6       0.0893
     14 O8          3.4372  -11.6793    0.5606 O.3         1 HQ6      -0.3894
     15 N1          6.1841  -12.0047    0.7870 N.4         1 HQ6       0.2346
     16 C7          6.2221  -10.6527    1.3837 C.3         1 HQ6      -0.0043
     17 H1          8.8042  -10.4521    7.0305 H           1 HQ6       0.0467
     18 H2          7.3531  -10.3185    8.0307 H           1 HQ6       0.0467
     19 H3          7.9329   -8.9110    7.1049 H           1 HQ6       0.0467
     20 H4          8.4216  -11.2899    5.0055 H           1 HQ6       0.1856
     21 H5          5.6932  -11.3984    3.9524 H           1 HQ6       0.0610
     22 H6          8.1882  -10.7236    2.3017 H           1 HQ6       0.0671
     23 H7          7.7833   -8.7053    2.4916 H           1 HQ6       0.2101
     24 H8          7.9609  -13.0163    2.7441 H           1 HQ6       0.0645
     25 H9          8.2740  -14.1764    4.3380 H           1 HQ6       0.2100
     26 H10         5.0926  -13.8249    3.4220 H           1 HQ6       0.0678
     27 H11         6.3784  -15.5271    3.2584 H           1 HQ6       0.2102
     28 H12         5.3463  -13.8321    0.6022 H           1 HQ6       0.0900
     29 H13         3.5993  -12.3094    2.5023 H           1 HQ6       0.0614
     30 H14         3.2043  -13.5794    1.3243 H           1 HQ6       0.0614
     31 H15         3.7333  -12.0157   -0.3142 H           1 HQ6       0.2097
     32 H16         5.8725  -11.8841   -0.1778 H           1 HQ6       0.2019
     33 H17         7.1435  -12.3559    0.7540 H           1 HQ6       0.2019
     34 H18         6.6037   -9.9860    0.6048 H           1 HQ6       0.0840
     35 H19         5.2130  -10.3128    1.6328 H           1 HQ6       0.0840
@<TRIPOS>BOND
     1     1     2   2
     2     2     3   1
     3     2     4  am
     4     4     5   1
     5     5     6   1
     6     5     8   1
     7     6     7   1
     8     6    16   1
     9     8     9   1
    10     8    10   1
    11    10    11   1
    12    10    12   1
    13    12    13   1
    14    12    15   1
    15    13    14   1
    16    15    16   1
    17     3    17   1
    18     3    18   1
    19     3    19   1
    20     4    20   1
    21     5    21   1
    22     6    22   1
    23     7    23   1
    24     8    24   1
    25     9    25   1
    26    10    26   1
    27    11    27   1
    28    12    28   1
    29    13    29   1
    30    13    30   1
    31    14    31   1
    32    15    32   1
    33    15    33   1
    34    16    34   1
    35    16    35   1
@<TRIPOS>SUBSTRUCTURE
     1  HQ6      2

