@<TRIPOS>MOLECULE
2w66_ligand_043
    35    35
SMALL
GAST_HUCK
****
This file was generated by PARSER (from files_GN.cpp)

@<TRIPOS>ATOM
      1 O9          8.2374  -13.6155    4.6975 O.2         1 HQ6      -0.3974
      2 C9          8.6198  -12.5999    5.2459 C.2         1 HQ6       0.1733
      3 C10         9.5474  -12.7208    6.3352 C.3         1 HQ6       0.0257
      4 N2          8.2372  -11.3980    4.8394 N.am        1 HQ6      -0.2788
      5 C5          7.2821  -11.0786    3.8128 C.3         1 HQ6       0.1012
      6 C6          7.9794  -11.1286    2.4236 C.3         1 HQ6       0.1200
      7 O6          9.0969  -10.2403    2.4089 O.3         1 HQ6      -0.3841
      8 C4          5.9758  -11.9408    3.9359 C.3         1 HQ6       0.1118
      9 O4          5.6060  -12.0263    5.3209 O.3         1 HQ6      -0.3866
     10 C3          4.7650  -11.4187    3.1113 C.3         1 HQ6       0.1276
     11 O3          3.5613  -11.9589    3.6806 O.3         1 HQ6      -0.3835
     12 C2          4.7710  -11.8011    1.5889 C.3         1 HQ6       0.0301
     13 C8          3.7823  -10.9230    0.7521 C.3         1 HQ6       0.0893
     14 O8          2.8324  -11.7105    0.0328 O.3         1 HQ6      -0.3894
     15 N1          6.1039  -11.8437    0.9331 N.4         1 HQ6       0.2346
     16 C7          7.0682  -10.7626    1.2236 C.3         1 HQ6      -0.0043
     17 H1          9.5888  -11.8055    6.9280 H           1 HQ6       0.0467
     18 H2         10.5402  -12.9386    5.9436 H           1 HQ6       0.0467
     19 H3          9.2541  -13.5310    7.0002 H           1 HQ6       0.0467
     20 H4          8.6500  -10.6487    5.3113 H           1 HQ6       0.1856
     21 H5          7.0033  -10.0363    3.9969 H           1 HQ6       0.0610
     22 H6          8.3737  -12.1302    2.2548 H           1 HQ6       0.0671
     23 H7          8.7541   -9.3548    2.1607 H           1 HQ6       0.2101
     24 H8          6.1620  -12.9618    3.6089 H           1 HQ6       0.0645
     25 H9          5.9134  -11.1840    5.7322 H           1 HQ6       0.2100
     26 H10         4.7192  -10.3327    3.2203 H           1 HQ6       0.0678
     27 H11         2.8268  -11.6255    3.1272 H           1 HQ6       0.2102
     28 H12         4.4220  -12.8345    1.5283 H           1 HQ6       0.0900
     29 H13         4.3316  -10.3031    0.0364 H           1 HQ6       0.0614
     30 H14         3.2072  -10.2482    1.3879 H           1 HQ6       0.0614
     31 H15         3.3465  -12.1502   -0.6797 H           1 HQ6       0.2097
     32 H16         5.9462  -11.8423   -0.0789 H           1 HQ6       0.2019
     33 H17         6.5532  -12.7316    1.1740 H           1 HQ6       0.2019
     34 H18         7.6957  -10.6496    0.3301 H           1 HQ6       0.0840
     35 H19         6.5648   -9.8069    1.3940 H           1 HQ6       0.0840
@<TRIPOS>BOND
     1     1     2   2
     2     2     3   1
     3     2     4  am
     4     4     5   1
     5     5     6   1
     6     5     8   1
     7     6     7   1
     8     6    16   1
     9     8     9   1
    10     8    10   1
    11    10    11   1
    12    10    12   1
    13    12    13   1
    14    12    15   1
    15    13    14   1
    16    15    16   1
    17     3    17   1
    18     3    18   1
    19     3    19   1
    20     4    20   1
    21     5    21   1
    22     6    22   1
    23     7    23   1
    24     8    24   1
    25     9    25   1
    26    10    26   1
    27    11    27   1
    28    12    28   1
    29    13    29   1
    30    13    30   1
    31    14    31   1
    32    15    32   1
    33    15    33   1
    34    16    34   1
    35    16    35   1
@<TRIPOS>SUBSTRUCTURE
     1  HQ6      2

