@<TRIPOS>MOLECULE
2w66_ligand_013
    35    35
SMALL
GAST_HUCK
****
This file was generated by PARSER (from files_GN.cpp)

@<TRIPOS>ATOM
      1 O9          7.3933  -14.8339   -0.5528 O.2         1 HQ6      -0.3974
      2 C9          6.2306  -14.4662   -0.7352 C.2         1 HQ6       0.1733
      3 C10         5.6376  -14.7349   -2.0216 C.3         1 HQ6       0.0257
      4 N2          5.5083  -13.8867    0.2318 N.am        1 HQ6      -0.2788
      5 C5          5.8805  -13.5022    1.5722 C.3         1 HQ6       0.1012
      6 C6          6.9090  -14.4674    2.2434 C.3         1 HQ6       0.1200
      7 O6          6.4149  -15.7985    2.1542 O.3         1 HQ6      -0.3841
      8 C4          6.2216  -11.9718    1.6418 C.3         1 HQ6       0.1118
      9 O4          5.2650  -11.2657    0.8385 O.3         1 HQ6      -0.3866
     10 C3          6.1174  -11.3634    3.0802 C.3         1 HQ6       0.1276
     11 O3          5.9422   -9.9392    2.9833 O.3         1 HQ6      -0.3835
     12 C2          7.3416  -11.6179    4.0236 C.3         1 HQ6       0.0301
     13 C8          6.9796  -11.3571    5.5193 C.3         1 HQ6       0.0893
     14 O8          8.0668  -11.6610    6.3960 O.3         1 HQ6      -0.3894
     15 N1          8.0235  -12.9302    3.8716 N.4         1 HQ6       0.2346
     16 C7          7.2102  -14.1626    3.7287 C.3         1 HQ6      -0.0043
     17 H1          4.6464  -14.2717   -2.1132 H           1 HQ6       0.0467
     18 H2          5.5356  -15.8195   -2.1542 H           1 HQ6       0.0467
     19 H3          6.2910  -14.3328   -2.8074 H           1 HQ6       0.0467
     20 H4          4.5846  -13.6702   -0.0097 H           1 HQ6       0.1856
     21 H5          4.9516  -13.6288    2.1414 H           1 HQ6       0.0610
     22 H6          7.8691  -14.4238    1.7358 H           1 HQ6       0.0671
     23 H7          6.6148  -16.0918    1.2393 H           1 HQ6       0.2101
     24 H8          7.2144  -11.7828    1.2253 H           1 HQ6       0.0645
     25 H9          5.4426  -11.5108   -0.0942 H           1 HQ6       0.2100
     26 H10         5.2082  -11.7658    3.5464 H           1 HQ6       0.0678
     27 H11         5.0594   -9.7457    3.3840 H           1 HQ6       0.2102
     28 H12         8.1098  -10.8828    3.7621 H           1 HQ6       0.0900
     29 H13         6.1302  -11.9754    5.8172 H           1 HQ6       0.0614
     30 H14         6.7094  -10.3052    5.6654 H           1 HQ6       0.0614
     31 H15         8.7708  -11.0070    6.1756 H           1 HQ6       0.2097
     32 H16         8.6471  -13.0431    4.6805 H           1 HQ6       0.2019
     33 H17         8.6266  -12.8726    3.0489 H           1 HQ6       0.2019
     34 H18         7.8234  -14.9784    4.1292 H           1 HQ6       0.0840
     35 H19         6.2889  -14.1136    4.3287 H           1 HQ6       0.0840
@<TRIPOS>BOND
     1     1     2   2
     2     2     3   1
     3     2     4  am
     4     4     5   1
     5     5     6   1
     6     5     8   1
     7     6     7   1
     8     6    16   1
     9     8     9   1
    10     8    10   1
    11    10    11   1
    12    10    12   1
    13    12    13   1
    14    12    15   1
    15    13    14   1
    16    15    16   1
    17     3    17   1
    18     3    18   1
    19     3    19   1
    20     4    20   1
    21     5    21   1
    22     6    22   1
    23     7    23   1
    24     8    24   1
    25     9    25   1
    26    10    26   1
    27    11    27   1
    28    12    28   1
    29    13    29   1
    30    13    30   1
    31    14    31   1
    32    15    32   1
    33    15    33   1
    34    16    34   1
    35    16    35   1
@<TRIPOS>SUBSTRUCTURE
     1  HQ6      2

