@<TRIPOS>MOLECULE
2w66_ligand_061
    35    35
SMALL
GAST_HUCK
****
This file was generated by PARSER (from files_GN.cpp)

@<TRIPOS>ATOM
      1 O9          5.7796  -16.9645    2.5707 O.2         1 HQ6      -0.3974
      2 C9          5.2928  -16.0001    3.1469 C.2         1 HQ6       0.1733
      3 C10         5.0799  -16.0983    4.5720 C.3         1 HQ6       0.0257
      4 N2          4.9672  -14.8876    2.5005 N.am        1 HQ6      -0.2788
      5 C5          5.1112  -14.6288    1.0939 C.3         1 HQ6       0.1012
      6 C6          4.0447  -13.6132    0.5613 C.3         1 HQ6       0.1200
      7 O6          4.1067  -13.5159   -0.8621 O.3         1 HQ6      -0.3841
      8 C4          6.5978  -14.2689    0.7712 C.3         1 HQ6       0.1118
      9 O4          6.7402  -13.9489   -0.6140 O.3         1 HQ6      -0.3866
     10 C3          7.2979  -13.1639    1.6307 C.3         1 HQ6       0.1276
     11 O3          7.8680  -13.7617    2.7983 O.3         1 HQ6      -0.3835
     12 C2          6.4346  -11.9453    2.0884 C.3         1 HQ6       0.0301
     13 C8          7.3066  -10.7092    2.4410 C.3         1 HQ6       0.0893
     14 O8          7.9290  -10.1477    1.2889 O.3         1 HQ6      -0.3894
     15 N1          5.4180  -11.5315    1.0870 N.4         1 HQ6       0.2346
     16 C7          4.0962  -12.1923    1.1759 C.3         1 HQ6      -0.0043
     17 H1          6.0253  -16.3095    5.0741 H           1 HQ6       0.0467
     18 H2          4.3789  -16.9081    4.7828 H           1 HQ6       0.0467
     19 H3          4.6716  -15.1734    4.9853 H           1 HQ6       0.0467
     20 H4          4.6189  -14.1643    3.0423 H           1 HQ6       0.1856
     21 H5          4.9153  -15.5724    0.5714 H           1 HQ6       0.0610
     22 H6          3.0518  -14.0164    0.7763 H           1 HQ6       0.0671
     23 H7          3.9922  -14.4334   -1.1881 H           1 HQ6       0.2101
     24 H8          7.1778  -15.1889    0.8982 H           1 HQ6       0.0645
     25 H9          6.4470  -14.7502   -1.0978 H           1 HQ6       0.2100
     26 H10         8.1467  -12.7950    1.0486 H           1 HQ6       0.0678
     27 H11         8.6175  -13.1796    3.0466 H           1 HQ6       0.2102
     28 H12         5.9274  -12.2185    3.0201 H           1 HQ6       0.0900
     29 H13         8.0821  -10.9847    3.1590 H           1 HQ6       0.0614
     30 H14         6.6805   -9.9403    2.9002 H           1 HQ6       0.0614
     31 H15         8.4022   -9.3564    1.6207 H           1 HQ6       0.2097
     32 H16         5.7970  -11.6661    0.1469 H           1 HQ6       0.2019
     33 H17         5.2510  -10.5308    1.2152 H           1 HQ6       0.2019
     34 H18         3.7523  -12.2270    2.2135 H           1 HQ6       0.0840
     35 H19         3.3877  -11.5607    0.6358 H           1 HQ6       0.0840
@<TRIPOS>BOND
     1     1     2   2
     2     2     3   1
     3     2     4  am
     4     4     5   1
     5     5     6   1
     6     5     8   1
     7     6     7   1
     8     6    16   1
     9     8     9   1
    10     8    10   1
    11    10    11   1
    12    10    12   1
    13    12    13   1
    14    12    15   1
    15    13    14   1
    16    15    16   1
    17     3    17   1
    18     3    18   1
    19     3    19   1
    20     4    20   1
    21     5    21   1
    22     6    22   1
    23     7    23   1
    24     8    24   1
    25     9    25   1
    26    10    26   1
    27    11    27   1
    28    12    28   1
    29    13    29   1
    30    13    30   1
    31    14    31   1
    32    15    32   1
    33    15    33   1
    34    16    34   1
    35    16    35   1
@<TRIPOS>SUBSTRUCTURE
     1  HQ6      2

