@<TRIPOS>MOLECULE
2w66_ligand_022
    35    35
SMALL
GAST_HUCK
****
This file was generated by PARSER (from files_GN.cpp)

@<TRIPOS>ATOM
      1 O9          8.4152  -17.3559   -3.1549 O.2         1 HQ6      -0.3974
      2 C9          7.6300  -16.7681   -3.8988 C.2         1 HQ6       0.1733
      3 C10         7.8793  -16.8571   -5.3147 C.3         1 HQ6       0.0257
      4 N2          6.5524  -16.1522   -3.4513 N.am        1 HQ6      -0.2788
      5 C5          6.0928  -15.9824   -2.0976 C.3         1 HQ6       0.1012
      6 C6          6.0657  -17.3061   -1.2620 C.3         1 HQ6       0.1200
      7 O6          5.8089  -18.4307   -2.1087 O.3         1 HQ6      -0.3841
      8 C4          6.8700  -14.8202   -1.3898 C.3         1 HQ6       0.1118
      9 O4          7.1665  -13.7998   -2.3449 O.3         1 HQ6      -0.3866
     10 C3          6.1369  -14.1762   -0.1695 C.3         1 HQ6       0.1276
     11 O3          6.9418  -13.1161    0.3586 O.3         1 HQ6      -0.3835
     12 C2          5.7896  -15.1665    0.9782 C.3         1 HQ6       0.0301
     13 C8          5.3165  -14.4600    2.2840 C.3         1 HQ6       0.0893
     14 O8          4.1262  -13.7012    2.0905 O.3         1 HQ6      -0.3894
     15 N1          4.6950  -16.0642    0.5398 N.4         1 HQ6       0.2346
     16 C7          5.0359  -17.3470   -0.1036 C.3         1 HQ6      -0.0043
     17 H1          7.2416  -16.1735   -5.8806 H           1 HQ6       0.0467
     18 H2          7.6799  -17.8750   -5.6547 H           1 HQ6       0.0467
     19 H3          8.9207  -16.6056   -5.5248 H           1 HQ6       0.0467
     20 H4          5.9866  -15.7393   -4.1247 H           1 HQ6       0.1856
     21 H5          5.0631  -15.6430   -2.2155 H           1 HQ6       0.0610
     22 H6          7.0584  -17.4571   -0.8340 H           1 HQ6       0.0671
     23 H7          6.0601  -19.2207   -1.5896 H           1 HQ6       0.2101
     24 H8          7.8396  -15.1881   -1.0484 H           1 HQ6       0.0645
     25 H9          6.4171  -13.7989   -2.9729 H           1 HQ6       0.2100
     26 H10         5.2071  -13.7247   -0.5210 H           1 HQ6       0.0678
     27 H11         6.6934  -12.3197   -0.1636 H           1 HQ6       0.2102
     28 H12         6.6775  -15.7455    1.2414 H           1 HQ6       0.0900
     29 H13         6.0989  -13.8052    2.6749 H           1 HQ6       0.0614
     30 H14         5.1098  -15.2059    3.0546 H           1 HQ6       0.0614
     31 H15         4.3844  -12.9467    1.5274 H           1 HQ6       0.2097
     32 H16         4.1021  -15.5449   -0.1069 H           1 HQ6       0.2019
     33 H17         4.1279  -16.2991    1.3488 H           1 HQ6       0.2019
     34 H18         5.3930  -18.0428    0.6630 H           1 HQ6       0.0840
     35 H19         4.0935  -17.7495   -0.4870 H           1 HQ6       0.0840
@<TRIPOS>BOND
     1     1     2   2
     2     2     3   1
     3     2     4  am
     4     4     5   1
     5     5     6   1
     6     5     8   1
     7     6     7   1
     8     6    16   1
     9     8     9   1
    10     8    10   1
    11    10    11   1
    12    10    12   1
    13    12    13   1
    14    12    15   1
    15    13    14   1
    16    15    16   1
    17     3    17   1
    18     3    18   1
    19     3    19   1
    20     4    20   1
    21     5    21   1
    22     6    22   1
    23     7    23   1
    24     8    24   1
    25     9    25   1
    26    10    26   1
    27    11    27   1
    28    12    28   1
    29    13    29   1
    30    13    30   1
    31    14    31   1
    32    15    32   1
    33    15    33   1
    34    16    34   1
    35    16    35   1
@<TRIPOS>SUBSTRUCTURE
     1  HQ6      2

