@<TRIPOS>MOLECULE
2w66_ligand_031
    35    35
SMALL
GAST_HUCK
****
This file was generated by PARSER (from files_GN.cpp)

@<TRIPOS>ATOM
      1 O9          2.6045  -12.8663    1.8646 O.2         1 HQ6      -0.3974
      2 C9          3.3833  -12.5341    0.9722 C.2         1 HQ6       0.1733
      3 C10         3.2488  -11.2262    0.3881 C.3         1 HQ6       0.0257
      4 N2          4.3892  -13.3092    0.6062 N.am        1 HQ6      -0.2788
      5 C5          4.7160  -14.6078    1.1354 C.3         1 HQ6       0.1012
      6 C6          6.0374  -15.1168    0.4736 C.3         1 HQ6       0.1200
      7 O6          6.2295  -16.5023    0.7684 O.3         1 HQ6      -0.3841
      8 C4          4.6848  -14.6638    2.7021 C.3         1 HQ6       0.1118
      9 O4          5.1573  -15.9299    3.1643 O.3         1 HQ6      -0.3866
     10 C3          5.4154  -13.5390    3.5137 C.3         1 HQ6       0.1276
     11 O3          4.5325  -12.4370    3.7370 O.3         1 HQ6      -0.3835
     12 C2          6.7607  -13.0189    2.9148 C.3         1 HQ6       0.0301
     13 C8          7.6428  -12.2821    3.9622 C.3         1 HQ6       0.0893
     14 O8          8.0754  -13.1466    5.0079 O.3         1 HQ6      -0.3894
     15 N1          7.5379  -14.1200    2.2854 N.4         1 HQ6       0.2346
     16 C7          7.3268  -14.3287    0.8331 C.3         1 HQ6      -0.0043
     17 H1          3.4341  -10.4695    1.1548 H           1 HQ6       0.0467
     18 H2          2.2401  -11.0986   -0.0138 H           1 HQ6       0.0467
     19 H3          3.9653  -11.0649   -0.4242 H           1 HQ6       0.0467
     20 H4          4.9090  -12.9962   -0.1514 H           1 HQ6       0.1856
     21 H5          3.9333  -15.2863    0.7765 H           1 HQ6       0.0610
     22 H6          5.9132  -15.0581   -0.6092 H           1 HQ6       0.0671
     23 H7          6.9250  -16.8082    0.1391 H           1 HQ6       0.2101
     24 H8          3.6299  -14.6333    2.9995 H           1 HQ6       0.0645
     25 H9          4.5945  -16.5907    2.7244 H           1 HQ6       0.2100
     26 H10         5.6163  -13.9390    4.5070 H           1 HQ6       0.0678
     27 H11         4.6032  -11.8693    2.9359 H           1 HQ6       0.2102
     28 H12         6.5210  -12.2604    2.1594 H           1 HQ6       0.0900
     29 H13         7.0836  -11.4596    4.4113 H           1 HQ6       0.0614
     30 H14         8.5251  -11.8648    3.4691 H           1 HQ6       0.0614
     31 H15         8.8082  -12.6662    5.4539 H           1 HQ6       0.2097
     32 H16         7.3183  -14.9920    2.7709 H           1 HQ6       0.2019
     33 H17         8.5325  -13.9380    2.4428 H           1 HQ6       0.2019
     34 H18         7.3244  -13.3702    0.3010 H           1 HQ6       0.0840
     35 H19         8.1852  -14.8891    0.4573 H           1 HQ6       0.0840
@<TRIPOS>BOND
     1     1     2   2
     2     2     3   1
     3     2     4  am
     4     4     5   1
     5     5     6   1
     6     5     8   1
     7     6     7   1
     8     6    16   1
     9     8     9   1
    10     8    10   1
    11    10    11   1
    12    10    12   1
    13    12    13   1
    14    12    15   1
    15    13    14   1
    16    15    16   1
    17     3    17   1
    18     3    18   1
    19     3    19   1
    20     4    20   1
    21     5    21   1
    22     6    22   1
    23     7    23   1
    24     8    24   1
    25     9    25   1
    26    10    26   1
    27    11    27   1
    28    12    28   1
    29    13    29   1
    30    13    30   1
    31    14    31   1
    32    15    32   1
    33    15    33   1
    34    16    34   1
    35    16    35   1
@<TRIPOS>SUBSTRUCTURE
     1  HQ6      2

