@<TRIPOS>MOLECULE
2w66_ligand_018
    35    35
SMALL
GAST_HUCK
****
This file was generated by PARSER (from files_GN.cpp)

@<TRIPOS>ATOM
      1 O9          6.5037  -15.2016    4.2753 O.2         1 HQ6      -0.3974
      2 C9          7.3613  -14.8083    3.4920 C.2         1 HQ6       0.1733
      3 C10         7.8828  -15.7488    2.5355 C.3         1 HQ6       0.0257
      4 N2          7.7977  -13.5529    3.5073 N.am        1 HQ6      -0.2788
      5 C5          7.4419  -12.5193    4.4433 C.3         1 HQ6       0.1012
      6 C6          8.1286  -11.1826    4.0114 C.3         1 HQ6       0.1200
      7 O6          7.9946  -10.1762    5.0131 O.3         1 HQ6      -0.3841
      8 C4          5.9016  -12.4003    4.7243 C.3         1 HQ6       0.1118
      9 O4          5.6001  -11.2618    5.5165 O.3         1 HQ6      -0.3866
     10 C3          4.9393  -12.4258    3.4887 C.3         1 HQ6       0.1276
     11 O3          4.7096  -13.7897    3.1168 O.3         1 HQ6      -0.3835
     12 C2          5.3875  -11.6334    2.2226 C.3         1 HQ6       0.0301
     13 C8          4.1663  -11.2108    1.3545 C.3         1 HQ6       0.0893
     14 O8          4.5260  -10.2028    0.4127 O.3         1 HQ6      -0.3894
     15 N1          6.1911  -10.4189    2.5289 N.4         1 HQ6       0.2346
     16 C7          7.6573  -10.6029    2.6536 C.3         1 HQ6      -0.0043
     17 H1          7.1022  -16.0391    1.8328 H           1 HQ6       0.0467
     18 H2          8.2331  -16.6427    3.0700 H           1 HQ6       0.0467
     19 H3          8.7220  -15.3346    1.9704 H           1 HQ6       0.0467
     20 H4          8.4639  -13.3180    2.8417 H           1 HQ6       0.1856
     21 H5          7.9114  -12.7806    5.4011 H           1 HQ6       0.0610
     22 H6          9.2015  -11.3668    3.9197 H           1 HQ6       0.0671
     23 H7          8.7567  -10.3129    5.6179 H           1 HQ6       0.2101
     24 H8          5.6164  -13.2531    5.3600 H           1 HQ6       0.0645
     25 H9          6.1307  -11.3453    6.3387 H           1 HQ6       0.2100
     26 H10         3.9710  -12.0348    3.8357 H           1 HQ6       0.0678
     27 H11         3.8701  -13.7809    2.6038 H           1 HQ6       0.2102
     28 H12         5.9818  -12.2944    1.5879 H           1 HQ6       0.0900
     29 H13         3.3623  -10.8162    1.9761 H           1 HQ6       0.0614
     30 H14         3.7846  -12.0728    0.7973 H           1 HQ6       0.0614
     31 H15         5.1981  -10.6084   -0.1747 H           1 HQ6       0.2097
     32 H16         5.8371   -9.9746    3.3829 H           1 HQ6       0.2019
     33 H17         6.0640   -9.7590    1.7666 H           1 HQ6       0.2019
     34 H18         8.0299  -11.2309    1.8357 H           1 HQ6       0.0840
     35 H19         8.1266   -9.6227    2.5221 H           1 HQ6       0.0840
@<TRIPOS>BOND
     1     1     2   2
     2     2     3   1
     3     2     4  am
     4     4     5   1
     5     5     6   1
     6     5     8   1
     7     6     7   1
     8     6    16   1
     9     8     9   1
    10     8    10   1
    11    10    11   1
    12    10    12   1
    13    12    13   1
    14    12    15   1
    15    13    14   1
    16    15    16   1
    17     3    17   1
    18     3    18   1
    19     3    19   1
    20     4    20   1
    21     5    21   1
    22     6    22   1
    23     7    23   1
    24     8    24   1
    25     9    25   1
    26    10    26   1
    27    11    27   1
    28    12    28   1
    29    13    29   1
    30    13    30   1
    31    14    31   1
    32    15    32   1
    33    15    33   1
    34    16    34   1
    35    16    35   1
@<TRIPOS>SUBSTRUCTURE
     1  HQ6      2

