@<TRIPOS>MOLECULE
2wbg_ligand_011
    50    51
SMALL
GAST_HUCK
****
This file was generated by PARSER (from files_GN.cpp)

@<TRIPOS>ATOM
      1 O4         -0.8427    7.0730   11.8482 O.3         1 LGS      -0.3867
      2 C4          0.5826    7.0297   11.8930 C.3         1 LGS       0.1103
      3 C5          1.1188    6.1378   10.7358 C.3         1 LGS       0.1113
      4 C6          0.9731    6.7204    9.3132 C.3         1 LGS       0.1120
      5 O6          2.2890    6.9115    8.7959 O.3         1 LGS      -0.2547
      6 C3          1.0683    6.4934   13.2681 C.3         1 LGS       0.1137
      7 O3          0.7125    7.4068   14.3002 O.3         1 LGS      -0.3864
      8 C2          2.6106    6.2851   13.2680 C.3         1 LGS       0.1318
      9 O2          3.0065    5.7042   14.5133 O.3         1 LGS      -0.3843
     10 C1          3.0797    5.4127   12.0694 C.3         1 LGS       0.1770
     11 O1          4.5102    5.3359   12.0667 O.3         1 LGS      -0.3666
     12 N1          2.5186    5.9677   10.8635 N.pl3       1 LGS      -0.2126
     13 C7          3.1240    6.3361    9.7148 C.2         1 LGS       0.2439
     14 N2          4.4330    6.1621    9.4251 N.2         1 LGS      -0.3607
     15 C8          5.0763    6.4061    8.1715 C.3         1 LGS      -0.0300
     16 C9          4.5223    5.5414    6.9913 C.3         1 LGS      -0.0515
     17 C10         3.8600    4.1778    7.3755 C.3         1 LGS      -0.0530
     18 C11         4.8102    2.9519    7.5787 C.3         1 LGS      -0.0531
     19 C12         6.1720    3.1919    8.3099 C.3         1 LGS      -0.0531
     20 C13         7.4343    3.1408    7.3735 C.3         1 LGS      -0.0533
     21 C14         8.0947    4.5270    7.1041 C.3         1 LGS      -0.0559
     22 C15         8.7920    5.1268    8.3551 C.3         1 LGS      -0.0653
     23 H1         -1.1242    6.1318   11.7298 H           1 LGS       0.2100
     24 H2          0.9448    8.0571   11.7677 H           1 LGS       0.0645
     25 H3          0.6379    5.1574   10.7909 H           1 LGS       0.0626
     26 H4          0.4291    7.6689    9.3055 H           1 LGS       0.0660
     27 H5          0.4530    6.0154    8.6679 H           1 LGS       0.0660
     28 H6          0.5794    5.5383   13.4756 H           1 LGS       0.0647
     29 H7          0.4691    8.2274   13.8472 H           1 LGS       0.2100
     30 H8          3.1000    7.2660   13.2063 H           1 LGS       0.0669
     31 H9          2.6509    4.7821   14.4972 H           1 LGS       0.2101
     32 H10         2.6915    4.3978   12.2079 H           1 LGS       0.0908
     33 H11         4.7171    4.3595   12.0035 H           1 LGS       0.2124
     34 H12         6.1347    6.1994    8.3054 H           1 LGS       0.0282
     35 H13         4.9708    7.4633    7.9246 H           1 LGS       0.0282
     36 H14         5.3380    5.3637    6.2680 H           1 LGS       0.0266
     37 H15         3.7585    6.1469    6.4817 H           1 LGS       0.0266
     38 H16         3.1875    3.8999    6.5457 H           1 LGS       0.0265
     39 H17         3.2380    4.3062    8.2804 H           1 LGS       0.0265
     40 H18         4.9544    2.4536    6.5967 H           1 LGS       0.0265
     41 H19         4.2398    2.2405    8.1963 H           1 LGS       0.0265
     42 H20         6.3044    2.4076    9.0630 H           1 LGS       0.0265
     43 H21         6.1582    4.1357    8.8588 H           1 LGS       0.0265
     44 H22         7.1589    2.6977    6.3991 H           1 LGS       0.0265
     45 H23         8.1879    2.4716    7.8098 H           1 LGS       0.0265
     46 H24         7.3335    5.2253    6.7251 H           1 LGS       0.0263
     47 H25         8.8552    4.4012    6.3199 H           1 LGS       0.0263
     48 H26         9.2604    6.0789    8.0839 H           1 LGS       0.0230
     49 H27         9.5664    4.4417    8.7192 H           1 LGS       0.0230
     50 H28         8.0695    5.3062    9.1618 H           1 LGS       0.0230
@<TRIPOS>BOND
     1     1     2   1
     2     2     3   1
     3     2     6   1
     4     3     4   1
     5     3    12   1
     6     4     5   1
     7     5    13   1
     8     6     7   1
     9     6     8   1
    10     8     9   1
    11     8    10   1
    12    10    11   1
    13    10    12   1
    14    12    13   1
    15    13    14   2
    16    14    15   1
    17    15    16   1
    18    16    17   1
    19    17    18   1
    20    18    19   1
    21    19    20   1
    22    20    21   1
    23    21    22   1
    24     1    23   1
    25     2    24   1
    26     3    25   1
    27     4    26   1
    28     4    27   1
    29     6    28   1
    30     7    29   1
    31     8    30   1
    32     9    31   1
    33    10    32   1
    34    11    33   1
    35    15    34   1
    36    15    35   1
    37    16    36   1
    38    16    37   1
    39    17    38   1
    40    17    39   1
    41    18    40   1
    42    18    41   1
    43    19    42   1
    44    19    43   1
    45    20    44   1
    46    20    45   1
    47    21    46   1
    48    21    47   1
    49    22    48   1
    50    22    49   1
    51    22    50   1
@<TRIPOS>SUBSTRUCTURE
     1  LGS      2

