@<TRIPOS>MOLECULE
2wbg_ligand_023
    50    51
SMALL
GAST_HUCK
****
This file was generated by PARSER (from files_GN.cpp)

@<TRIPOS>ATOM
      1 O4          2.9136   10.8057   -3.2300 O.3         1 LGS      -0.3867
      2 C4          3.8527    9.7662   -2.9382 C.3         1 LGS       0.1103
      3 C5          4.4077    9.9777   -1.4998 C.3         1 LGS       0.1113
      4 C6          3.4650    9.6428   -0.3231 C.3         1 LGS       0.1120
      5 O6          4.2759    9.0229    0.6810 O.3         1 LGS      -0.2547
      6 C3          4.9903    9.7216   -4.0231 C.3         1 LGS       0.1137
      7 O3          4.8685    8.5432   -4.8255 O.3         1 LGS      -0.3864
      8 C2          6.4440    9.7590   -3.4486 C.3         1 LGS       0.1318
      9 O2          6.8137   11.1061   -3.1457 O.3         1 LGS      -0.3843
     10 C1          6.5778    8.8878   -2.1660 C.3         1 LGS       0.1770
     11 O1          6.6508    7.5171   -2.5669 O.3         1 LGS      -0.3666
     12 N1          5.4958    9.1116   -1.2339 N.pl3       1 LGS      -0.2126
     13 C7          5.3915    8.6111    0.0126 C.2         1 LGS       0.2439
     14 N2          6.3387    7.8441    0.5866 N.2         1 LGS      -0.3607
     15 C8          6.3206    7.3608    1.9284 C.3         1 LGS      -0.0300
     16 C9          7.6138    6.5664    2.2425 C.3         1 LGS      -0.0515
     17 C10         7.7027    5.1609    1.5849 C.3         1 LGS      -0.0530
     18 C11         6.9314    4.0596    2.3652 C.3         1 LGS      -0.0531
     19 C12         7.0650    2.6497    1.7242 C.3         1 LGS      -0.0531
     20 C13         6.3227    1.5234    2.5172 C.3         1 LGS      -0.0533
     21 C14         7.1990    0.7824    3.5660 C.3         1 LGS      -0.0559
     22 C15         8.0207    1.7132    4.4901 C.3         1 LGS      -0.0653
     23 H1          2.3471   10.8862   -2.4288 H           1 LGS       0.2100
     24 H2          3.2999    8.8220   -2.9643 H           1 LGS       0.0645
     25 H3          4.7535   11.0114   -1.3950 H           1 LGS       0.0626
     26 H4          2.6760    8.9452   -0.6164 H           1 LGS       0.0660
     27 H5          3.0036   10.5421    0.0881 H           1 LGS       0.0660
     28 H6          4.8763   10.5675   -4.7083 H           1 LGS       0.0647
     29 H7          3.9998    8.6217   -5.2677 H           1 LGS       0.2100
     30 H8          7.1527    9.4036   -4.2031 H           1 LGS       0.0669
     31 H9          6.8728   11.5611   -4.0145 H           1 LGS       0.2101
     32 H10         7.5241    9.1329   -1.6733 H           1 LGS       0.0908
     33 H11         5.9730    7.0302   -2.0538 H           1 LGS       0.2124
     34 H12         5.4376    6.7397    2.0858 H           1 LGS       0.0282
     35 H13         6.2636    8.2137    2.6130 H           1 LGS       0.0282
     36 H14         7.7046    6.4534    3.3274 H           1 LGS       0.0266
     37 H15         8.4725    7.1605    1.9110 H           1 LGS       0.0266
     38 H16         8.7576    4.8683    1.5526 H           1 LGS       0.0265
     39 H17         7.3387    5.2103    0.5554 H           1 LGS       0.0265
     40 H18         5.8687    4.3185    2.4089 H           1 LGS       0.0265
     41 H19         7.3140    4.0275    3.3894 H           1 LGS       0.0265
     42 H20         8.1229    2.3932    1.6097 H           1 LGS       0.0265
     43 H21         6.6486    2.7109    0.7149 H           1 LGS       0.0265
     44 H22         5.9748    0.7695    1.8052 H           1 LGS       0.0265
     45 H23         5.4279    1.9141    3.0138 H           1 LGS       0.0265
     46 H24         7.8776    0.1069    3.0391 H           1 LGS       0.0263
     47 H25         6.5450    0.1613    4.1874 H           1 LGS       0.0263
     48 H26         8.6503    1.1103    5.1505 H           1 LGS       0.0230
     49 H27         7.3540    2.3224    5.1039 H           1 LGS       0.0230
     50 H28         8.6643    2.3699    3.9015 H           1 LGS       0.0230
@<TRIPOS>BOND
     1     1     2   1
     2     2     3   1
     3     2     6   1
     4     3     4   1
     5     3    12   1
     6     4     5   1
     7     5    13   1
     8     6     7   1
     9     6     8   1
    10     8     9   1
    11     8    10   1
    12    10    11   1
    13    10    12   1
    14    12    13   1
    15    13    14   2
    16    14    15   1
    17    15    16   1
    18    16    17   1
    19    17    18   1
    20    18    19   1
    21    19    20   1
    22    20    21   1
    23    21    22   1
    24     1    23   1
    25     2    24   1
    26     3    25   1
    27     4    26   1
    28     4    27   1
    29     6    28   1
    30     7    29   1
    31     8    30   1
    32     9    31   1
    33    10    32   1
    34    11    33   1
    35    15    34   1
    36    15    35   1
    37    16    36   1
    38    16    37   1
    39    17    38   1
    40    17    39   1
    41    18    40   1
    42    18    41   1
    43    19    42   1
    44    19    43   1
    45    20    44   1
    46    20    45   1
    47    21    46   1
    48    21    47   1
    49    22    48   1
    50    22    49   1
    51    22    50   1
@<TRIPOS>SUBSTRUCTURE
     1  LGS      2

