@<TRIPOS>MOLECULE
2wbg_ligand_039
    50    51
SMALL
GAST_HUCK
****
This file was generated by PARSER (from files_GN.cpp)

@<TRIPOS>ATOM
      1 O4          2.7656   10.6564   -3.2462 O.3         1 LGS      -0.3867
      2 C4          3.7408    9.6554   -2.9329 C.3         1 LGS       0.1103
      3 C5          4.3620    9.9299   -1.5284 C.3         1 LGS       0.1113
      4 C6          3.4879    9.5721   -0.3060 C.3         1 LGS       0.1120
      5 O6          4.3545    8.9712    0.6585 O.3         1 LGS      -0.2547
      6 C3          4.8204    9.5706   -4.0726 C.3         1 LGS       0.1137
      7 O3          4.7020    8.3301   -4.7727 O.3         1 LGS      -0.3864
      8 C2          6.2973    9.6988   -3.5858 C.3         1 LGS       0.1318
      9 O2          6.6159   11.0710   -3.3659 O.3         1 LGS      -0.3843
     10 C1          6.5386    8.9045   -2.2744 C.3         1 LGS       0.1770
     11 O1          6.6831    7.5141   -2.5736 O.3         1 LGS      -0.3666
     12 N1          5.4895    9.1019   -1.3076 N.pl3       1 LGS      -0.2126
     13 C7          5.4375    8.5766   -0.0710 C.2         1 LGS       0.2439
     14 N2          6.4167    7.7994    0.4285 N.2         1 LGS      -0.3607
     15 C8          6.5081    7.2847    1.7465 C.3         1 LGS      -0.0300
     16 C9          7.8605    6.5631    1.9522 C.3         1 LGS      -0.0515
     17 C10         9.0955    7.4536    1.5994 C.3         1 LGS      -0.0530
     18 C11        10.4264    6.8874    2.1442 C.3         1 LGS      -0.0531
     19 C12        11.6534    7.8286    1.9434 C.3         1 LGS      -0.0531
     20 C13        12.8845    7.3627    2.7696 C.3         1 LGS      -0.0533
     21 C14        14.2261    8.0956    2.4445 C.3         1 LGS      -0.0559
     22 C15        14.5825    9.2608    3.3947 C.3         1 LGS      -0.0653
     23 H1          2.2109   10.7665   -2.4440 H           1 LGS       0.2100
     24 H2          3.2093    8.6993   -2.8886 H           1 LGS       0.0645
     25 H3          4.6791   10.9788   -1.4705 H           1 LGS       0.0626
     26 H4          2.7118    8.8507   -0.5656 H           1 LGS       0.0660
     27 H5          3.0127   10.4577    0.1186 H           1 LGS       0.0660
     28 H6          4.6422   10.3532   -4.8165 H           1 LGS       0.0647
     29 H7          3.8836    8.4259   -5.3009 H           1 LGS       0.2100
     30 H8          6.9785    9.3361   -4.3577 H           1 LGS       0.0669
     31 H9          6.6174   11.4886   -4.2535 H           1 LGS       0.2101
     32 H10         7.4827    9.2370   -1.8342 H           1 LGS       0.0908
     33 H11         5.9288    7.0446   -2.1575 H           1 LGS       0.2124
     34 H12         5.6890    6.5887    1.9342 H           1 LGS       0.0282
     35 H13         6.4309    8.1046    2.4625 H           1 LGS       0.0282
     36 H14         7.8907    5.6513    1.3402 H           1 LGS       0.0266
     37 H15         7.9177    6.2593    2.9999 H           1 LGS       0.0266
     38 H16         8.9596    8.4492    2.0291 H           1 LGS       0.0265
     39 H17         9.1651    7.5555    0.5072 H           1 LGS       0.0265
     40 H18        10.6359    5.9324    1.6477 H           1 LGS       0.0265
     41 H19        10.2985    6.6960    3.2154 H           1 LGS       0.0265
     42 H20        11.4020    8.8532    2.2310 H           1 LGS       0.0265
     43 H21        11.9099    7.8364    0.8744 H           1 LGS       0.0265
     44 H22        13.0377    6.2929    2.5846 H           1 LGS       0.0265
     45 H23        12.6457    7.4641    3.8332 H           1 LGS       0.0265
     46 H24        14.2178    8.4830    1.4238 H           1 LGS       0.0263
     47 H25        15.0468    7.3733    2.5048 H           1 LGS       0.0263
     48 H26        15.5609    9.6717    3.1237 H           1 LGS       0.0230
     49 H27        14.6316    8.9037    4.4276 H           1 LGS       0.0230
     50 H28        13.8364   10.0550    3.3216 H           1 LGS       0.0230
@<TRIPOS>BOND
     1     1     2   1
     2     2     3   1
     3     2     6   1
     4     3     4   1
     5     3    12   1
     6     4     5   1
     7     5    13   1
     8     6     7   1
     9     6     8   1
    10     8     9   1
    11     8    10   1
    12    10    11   1
    13    10    12   1
    14    12    13   1
    15    13    14   2
    16    14    15   1
    17    15    16   1
    18    16    17   1
    19    17    18   1
    20    18    19   1
    21    19    20   1
    22    20    21   1
    23    21    22   1
    24     1    23   1
    25     2    24   1
    26     3    25   1
    27     4    26   1
    28     4    27   1
    29     6    28   1
    30     7    29   1
    31     8    30   1
    32     9    31   1
    33    10    32   1
    34    11    33   1
    35    15    34   1
    36    15    35   1
    37    16    36   1
    38    16    37   1
    39    17    38   1
    40    17    39   1
    41    18    40   1
    42    18    41   1
    43    19    42   1
    44    19    43   1
    45    20    44   1
    46    20    45   1
    47    21    46   1
    48    21    47   1
    49    22    48   1
    50    22    49   1
    51    22    50   1
@<TRIPOS>SUBSTRUCTURE
     1  LGS      2

