@<TRIPOS>MOLECULE
2wbg_ligand_004
    50    51
SMALL
GAST_HUCK
****
This file was generated by PARSER (from files_GN.cpp)

@<TRIPOS>ATOM
      1 O4          0.8263    7.3342   14.0421 O.3         1 LGS      -0.3867
      2 C4          1.6107    6.5213   13.1685 C.3         1 LGS       0.1103
      3 C5          0.8245    6.1767   11.8655 C.3         1 LGS       0.1113
      4 C6          0.5532    7.3596   10.9127 C.3         1 LGS       0.1120
      5 O6          0.8955    6.9230    9.5932 O.3         1 LGS      -0.2547
      6 C3          2.0393    5.2077   13.8816 C.3         1 LGS       0.1137
      7 O3          2.8263    5.5089   15.0338 O.3         1 LGS      -0.3864
      8 C2          2.8653    4.3169   12.9122 C.3         1 LGS       0.1318
      9 O2          3.1587    3.0749   13.5500 O.3         1 LGS      -0.3843
     10 C1          2.1293    4.0708   11.5582 C.3         1 LGS       0.1770
     11 O1          2.9883    3.3850   10.6423 O.3         1 LGS      -0.3666
     12 N1          1.5760    5.3011   11.0302 N.pl3       1 LGS      -0.2126
     13 C7          1.5856    5.7604    9.7623 C.2         1 LGS       0.2439
     14 N2          2.1550    5.1098    8.7214 N.2         1 LGS      -0.3607
     15 C8          2.2199    5.5007    7.3515 C.3         1 LGS      -0.0300
     16 C9          3.6790    5.4537    6.7877 C.3         1 LGS      -0.0515
     17 C10         4.1388    6.7710    6.0859 C.3         1 LGS      -0.0530
     18 C11         5.3479    6.6547    5.1082 C.3         1 LGS      -0.0531
     19 C12         6.4473    5.5902    5.3944 C.3         1 LGS      -0.0531
     20 C13         7.2138    5.7639    6.7387 C.3         1 LGS      -0.0533
     21 C14         8.2225    4.6155    7.0447 C.3         1 LGS      -0.0559
     22 C15         7.5784    3.2298    7.2997 C.3         1 LGS      -0.0653
     23 H1          0.5969    8.1324   13.5206 H           1 LGS       0.2100
     24 H2          2.5105    7.0864   12.9111 H           1 LGS       0.0645
     25 H3         -0.1255    5.6966   12.1303 H           1 LGS       0.0626
     26 H4          1.1683    8.2280   11.1590 H           1 LGS       0.0660
     27 H5         -0.4985    7.6606   10.9404 H           1 LGS       0.0660
     28 H6          1.1454    4.6684   14.2136 H           1 LGS       0.0647
     29 H7          2.8174    4.6954   15.5817 H           1 LGS       0.2100
     30 H8          3.8145    4.8202   12.7092 H           1 LGS       0.0669
     31 H9          2.2850    2.6765   13.7498 H           1 LGS       0.2101
     32 H10         1.2919    3.3991   11.7447 H           1 LGS       0.0908
     33 H11         3.8705    3.3353   11.0629 H           1 LGS       0.2124
     34 H12         1.7898    6.4954    7.2130 H           1 LGS       0.0282
     35 H13         1.6119    4.8027    6.7665 H           1 LGS       0.0282
     36 H14         3.7499    4.6302    6.0601 H           1 LGS       0.0266
     37 H15         4.3958    5.2379    7.5961 H           1 LGS       0.0266
     38 H16         4.3613    7.5090    6.8579 H           1 LGS       0.0265
     39 H17         3.3047    7.1659    5.5002 H           1 LGS       0.0265
     40 H18         5.8228    7.6356    5.0304 H           1 LGS       0.0265
     41 H19         4.9463    6.4258    4.1168 H           1 LGS       0.0265
     42 H20         7.1797    5.6262    4.5749 H           1 LGS       0.0265
     43 H21         5.9770    4.6024    5.3560 H           1 LGS       0.0265
     44 H22         6.4966    5.8366    7.5643 H           1 LGS       0.0265
     45 H23         7.7747    6.7054    6.6890 H           1 LGS       0.0265
     46 H24         8.7845    4.8915    7.9409 H           1 LGS       0.0263
     47 H25         8.9343    4.5279    6.2197 H           1 LGS       0.0263
     48 H26         8.3478    2.5230    7.6282 H           1 LGS       0.0230
     49 H27         7.1289    2.8331    6.3835 H           1 LGS       0.0230
     50 H28         6.8109    3.2990    8.0785 H           1 LGS       0.0230
@<TRIPOS>BOND
     1     1     2   1
     2     2     3   1
     3     2     6   1
     4     3     4   1
     5     3    12   1
     6     4     5   1
     7     5    13   1
     8     6     7   1
     9     6     8   1
    10     8     9   1
    11     8    10   1
    12    10    11   1
    13    10    12   1
    14    12    13   1
    15    13    14   2
    16    14    15   1
    17    15    16   1
    18    16    17   1
    19    17    18   1
    20    18    19   1
    21    19    20   1
    22    20    21   1
    23    21    22   1
    24     1    23   1
    25     2    24   1
    26     3    25   1
    27     4    26   1
    28     4    27   1
    29     6    28   1
    30     7    29   1
    31     8    30   1
    32     9    31   1
    33    10    32   1
    34    11    33   1
    35    15    34   1
    36    15    35   1
    37    16    36   1
    38    16    37   1
    39    17    38   1
    40    17    39   1
    41    18    40   1
    42    18    41   1
    43    19    42   1
    44    19    43   1
    45    20    44   1
    46    20    45   1
    47    21    46   1
    48    21    47   1
    49    22    48   1
    50    22    49   1
    51    22    50   1
@<TRIPOS>SUBSTRUCTURE
     1  LGS      2

