@<TRIPOS>MOLECULE
2wbg_ligand_024
    50    51
SMALL
GAST_HUCK
****
This file was generated by PARSER (from files_GN.cpp)

@<TRIPOS>ATOM
      1 O4          8.9615    4.0684    2.3201 O.3         1 LGS      -0.3867
      2 C4          7.6081    3.7783    2.6589 C.3         1 LGS       0.1103
      3 C5          7.3736    4.0616    4.1690 C.3         1 LGS       0.1113
      4 C6          7.4235    5.5430    4.5979 C.3         1 LGS       0.1120
      5 O6          6.3178    5.7547    5.4852 O.3         1 LGS      -0.2547
      6 C3          7.2140    2.3118    2.2584 C.3         1 LGS       0.1137
      7 O3          6.4802    2.3455    1.0330 O.3         1 LGS      -0.3864
      8 C2          6.3649    1.5493    3.3305 C.3         1 LGS       0.1318
      9 O2          7.2262    0.9052    4.2751 O.3         1 LGS      -0.3843
     10 C1          5.3952    2.4944    4.1004 C.3         1 LGS       0.1770
     11 O1          4.2686    2.8002    3.2727 O.3         1 LGS      -0.3666
     12 N1          6.0477    3.7093    4.5353 N.pl3       1 LGS      -0.2126
     13 C7          5.4857    4.7027    5.2444 C.2         1 LGS       0.2439
     14 N2          4.2156    4.6756    5.7070 N.2         1 LGS      -0.3607
     15 C8          3.6086    5.7742    6.4005 C.3         1 LGS      -0.0300
     16 C9          2.1470    5.4645    6.8465 C.3         1 LGS      -0.0515
     17 C10         1.8590    5.4263    8.3840 C.3         1 LGS      -0.0530
     18 C11         2.6698    6.4363    9.2552 C.3         1 LGS      -0.0531
     19 C12         1.9944    6.7843   10.6170 C.3         1 LGS      -0.0531
     20 C13         0.7261    7.6798   10.4563 C.3         1 LGS      -0.0533
     21 C14        -0.1732    7.7862   11.7241 C.3         1 LGS      -0.0559
     22 C15         0.4917    7.3363   13.0558 C.3         1 LGS      -0.0653
     23 H1          9.4969    3.3624    2.7423 H           1 LGS       0.2100
     24 H2          6.9895    4.4771    2.0884 H           1 LGS       0.0645
     25 H3          8.0718    3.4707    4.7720 H           1 LGS       0.0626
     26 H4          7.3169    6.2151    3.7425 H           1 LGS       0.0660
     27 H5          8.3620    5.7716    5.1068 H           1 LGS       0.0660
     28 H6          8.1230    1.7319    2.0556 H           1 LGS       0.0647
     29 H7          7.0352    2.8783    0.4180 H           1 LGS       0.2100
     30 H8          5.7947    0.7491    2.8442 H           1 LGS       0.0669
     31 H9          7.7776    0.2791    3.7543 H           1 LGS       0.2101
     32 H10         5.0204    1.9574    4.9753 H           1 LGS       0.0908
     33 H11         4.6254    3.2709    2.4886 H           1 LGS       0.2124
     34 H12         3.5703    6.6380    5.7128 H           1 LGS       0.0282
     35 H13         4.2178    6.0649    7.2746 H           1 LGS       0.0282
     36 H14         1.8225    4.5088    6.4092 H           1 LGS       0.0266
     37 H15         1.4847    6.2336    6.4196 H           1 LGS       0.0266
     38 H16         2.0389    4.4098    8.7523 H           1 LGS       0.0265
     39 H17         0.7977    5.6498    8.5087 H           1 LGS       0.0265
     40 H18         2.8352    7.3550    8.6876 H           1 LGS       0.0265
     41 H19         3.6522    5.9991    9.4566 H           1 LGS       0.0265
     42 H20         2.7143    7.3299   11.2359 H           1 LGS       0.0265
     43 H21         1.7188    5.8663   11.1515 H           1 LGS       0.0265
     44 H22         0.1144    7.2790    9.6390 H           1 LGS       0.0265
     45 H23         1.0419    8.6919   10.1794 H           1 LGS       0.0265
     46 H24        -1.0928    7.1989   11.5613 H           1 LGS       0.0263
     47 H25        -0.4760    8.8409   11.8374 H           1 LGS       0.0263
     48 H26        -0.0795    7.7238   13.9038 H           1 LGS       0.0230
     49 H27         1.5209    7.7143   13.1182 H           1 LGS       0.0230
     50 H28         0.5141    6.2407   13.1054 H           1 LGS       0.0230
@<TRIPOS>BOND
     1     1     2   1
     2     2     3   1
     3     2     6   1
     4     3     4   1
     5     3    12   1
     6     4     5   1
     7     5    13   1
     8     6     7   1
     9     6     8   1
    10     8     9   1
    11     8    10   1
    12    10    11   1
    13    10    12   1
    14    12    13   1
    15    13    14   2
    16    14    15   1
    17    15    16   1
    18    16    17   1
    19    17    18   1
    20    18    19   1
    21    19    20   1
    22    20    21   1
    23    21    22   1
    24     1    23   1
    25     2    24   1
    26     3    25   1
    27     4    26   1
    28     4    27   1
    29     6    28   1
    30     7    29   1
    31     8    30   1
    32     9    31   1
    33    10    32   1
    34    11    33   1
    35    15    34   1
    36    15    35   1
    37    16    36   1
    38    16    37   1
    39    17    38   1
    40    17    39   1
    41    18    40   1
    42    18    41   1
    43    19    42   1
    44    19    43   1
    45    20    44   1
    46    20    45   1
    47    21    46   1
    48    21    47   1
    49    22    48   1
    50    22    49   1
    51    22    50   1
@<TRIPOS>SUBSTRUCTURE
     1  LGS      2

