@<TRIPOS>MOLECULE
2wbg_ligand_057
    50    51
SMALL
GAST_HUCK
****
This file was generated by PARSER (from files_GN.cpp)

@<TRIPOS>ATOM
      1 O4          2.1904    7.6218   14.1892 O.3         1 LGS      -0.3867
      2 C4          2.0814    6.8199   13.0152 C.3         1 LGS       0.1103
      3 C5          3.0020    7.3907   11.8952 C.3         1 LGS       0.1113
      4 C6          4.5208    7.2135   12.1007 C.3         1 LGS       0.1120
      5 O6          5.0720    6.9168   10.8149 O.3         1 LGS      -0.2547
      6 C3          0.5790    6.7115   12.5766 C.3         1 LGS       0.1137
      7 O3          0.0540    5.4834   13.0815 O.3         1 LGS      -0.3864
      8 C2          0.3451    6.8247   11.0361 C.3         1 LGS       0.1318
      9 O2          0.1245    8.1910   10.6778 O.3         1 LGS      -0.3843
     10 C1          1.5271    6.2587   10.1957 C.3         1 LGS       0.1770
     11 O1          1.4905    4.8315   10.2410 O.3         1 LGS      -0.3666
     12 N1          2.8123    6.7121   10.6674 N.pl3       1 LGS      -0.2126
     13 C7          4.0062    6.4570   10.0991 C.2         1 LGS       0.2439
     14 N2          4.1336    5.7600    8.9495 N.2         1 LGS      -0.3607
     15 C8          5.3353    5.3473    8.3003 C.3         1 LGS      -0.0300
     16 C9          5.5974    3.8170    8.4539 C.3         1 LGS      -0.0515
     17 C10         4.4549    2.9033    9.0042 C.3         1 LGS      -0.0530
     18 C11         3.3610    2.3923    8.0018 C.3         1 LGS      -0.0531
     19 C12         3.0203    3.2834    6.7707 C.3         1 LGS      -0.0531
     20 C13         2.7209    2.4511    5.4864 C.3         1 LGS      -0.0533
     21 C14         2.5091    3.3165    4.2118 C.3         1 LGS      -0.0559
     22 C15         2.7533    2.5268    2.9047 C.3         1 LGS      -0.0653
     23 H1          1.9234    8.5178   13.8955 H           1 LGS       0.2100
     24 H2          2.4521    5.8244   13.2767 H           1 LGS       0.0645
     25 H3          2.7842    8.4461   11.7341 H           1 LGS       0.0626
     26 H4          4.7395    6.3817   12.7743 H           1 LGS       0.0660
     27 H5          4.9807    8.1204   12.4987 H           1 LGS       0.0660
     28 H6          0.0021    7.5007   13.0652 H           1 LGS       0.0647
     29 H7         -0.7051    5.2651   12.5016 H           1 LGS       0.2100
     30 H8         -0.5764    6.3047   10.7684 H           1 LGS       0.0669
     31 H9          0.9338    8.6736   10.9361 H           1 LGS       0.2101
     32 H10         1.3911    6.5635    9.1543 H           1 LGS       0.0908
     33 H11         1.4025    4.5992   11.1899 H           1 LGS       0.2124
     34 H12         6.2025    5.9077    8.6745 H           1 LGS       0.0282
     35 H13         5.2391    5.6108    7.2399 H           1 LGS       0.0282
     36 H14         6.4481    3.7087    9.1416 H           1 LGS       0.0266
     37 H15         5.9219    3.4151    7.4871 H           1 LGS       0.0266
     38 H16         3.9691    3.3724    9.8666 H           1 LGS       0.0265
     39 H17         4.9386    2.0069    9.4046 H           1 LGS       0.0265
     40 H18         2.4387    2.2144    8.5730 H           1 LGS       0.0265
     41 H19         3.6948    1.4099    7.6547 H           1 LGS       0.0265
     42 H20         3.8746    3.9291    6.5546 H           1 LGS       0.0265
     43 H21         2.1594    3.9197    7.0059 H           1 LGS       0.0265
     44 H22         1.8332    1.8292    5.6565 H           1 LGS       0.0265
     45 H23         3.5694    1.7794    5.3146 H           1 LGS       0.0265
     46 H24         3.1944    4.1730    4.2192 H           1 LGS       0.0263
     47 H25         1.4839    3.7011    4.2182 H           1 LGS       0.0263
     48 H26         2.5415    3.1692    2.0473 H           1 LGS       0.0230
     49 H27         2.1004    1.6504    2.8631 H           1 LGS       0.0230
     50 H28         3.7939    2.1976    2.8390 H           1 LGS       0.0230
@<TRIPOS>BOND
     1     1     2   1
     2     2     3   1
     3     2     6   1
     4     3     4   1
     5     3    12   1
     6     4     5   1
     7     5    13   1
     8     6     7   1
     9     6     8   1
    10     8     9   1
    11     8    10   1
    12    10    11   1
    13    10    12   1
    14    12    13   1
    15    13    14   2
    16    14    15   1
    17    15    16   1
    18    16    17   1
    19    17    18   1
    20    18    19   1
    21    19    20   1
    22    20    21   1
    23    21    22   1
    24     1    23   1
    25     2    24   1
    26     3    25   1
    27     4    26   1
    28     4    27   1
    29     6    28   1
    30     7    29   1
    31     8    30   1
    32     9    31   1
    33    10    32   1
    34    11    33   1
    35    15    34   1
    36    15    35   1
    37    16    36   1
    38    16    37   1
    39    17    38   1
    40    17    39   1
    41    18    40   1
    42    18    41   1
    43    19    42   1
    44    19    43   1
    45    20    44   1
    46    20    45   1
    47    21    46   1
    48    21    47   1
    49    22    48   1
    50    22    49   1
    51    22    50   1
@<TRIPOS>SUBSTRUCTURE
     1  LGS      2

