@<TRIPOS>MOLECULE
2wbg_ligand_029
    50    51
SMALL
GAST_HUCK
****
This file was generated by PARSER (from files_GN.cpp)

@<TRIPOS>ATOM
      1 O4          4.2612    1.9317    3.2187 O.3         1 LGS      -0.3867
      2 C4          4.5511    2.3295    4.5610 C.3         1 LGS       0.1103
      3 C5          3.8153    3.6727    4.8495 C.3         1 LGS       0.1113
      4 C6          2.2907    3.5268    5.0745 C.3         1 LGS       0.1120
      5 O6          1.9576    4.3173    6.2193 O.3         1 LGS      -0.2547
      6 C3          6.0831    2.4682    4.7917 C.3         1 LGS       0.1137
      7 O3          6.7137    1.1888    4.7047 O.3         1 LGS      -0.3864
      8 C2          6.3822    3.0853    6.1889 C.3         1 LGS       0.1318
      9 O2          7.7886    3.2974    6.3277 O.3         1 LGS      -0.3843
     10 C1          5.6302    4.4310    6.3747 C.3         1 LGS       0.1770
     11 O1          5.9131    4.9460    7.6743 O.3         1 LGS      -0.3666
     12 N1          4.2287    4.2504    6.0763 N.pl3       1 LGS      -0.2126
     13 C7          3.1517    4.5728    6.8169 C.2         1 LGS       0.2439
     14 N2          3.2270    5.1359    8.0381 N.2         1 LGS      -0.3607
     15 C8          2.1740    5.5098    8.9158 C.3         1 LGS      -0.0300
     16 C9          2.3189    4.7644   10.2647 C.3         1 LGS      -0.0515
     17 C10         3.6589    5.0806   11.0040 C.3         1 LGS      -0.0530
     18 C11         3.6118    5.0591   12.5610 C.3         1 LGS      -0.0531
     19 C12         2.3241    5.5933   13.2600 C.3         1 LGS      -0.0531
     20 C13         1.8398    7.0108   12.8135 C.3         1 LGS      -0.0533
     21 C14         0.2932    7.2027   12.8799 C.3         1 LGS      -0.0559
     22 C15        -0.3192    7.8217   11.6027 C.3         1 LGS      -0.0653
     23 H1          5.0767    1.5027    2.8797 H           1 LGS       0.2100
     24 H2          4.1773    1.5548    5.2404 H           1 LGS       0.0645
     25 H3          4.0088    4.3924    4.0452 H           1 LGS       0.0626
     26 H4          2.0020    2.4902    5.2840 H           1 LGS       0.0660
     27 H5          1.7227    3.8761    4.2080 H           1 LGS       0.0660
     28 H6          6.5110    3.1118    4.0146 H           1 LGS       0.0647
     29 H7          6.9809    1.0951    3.7615 H           1 LGS       0.2100
     30 H8          6.0644    2.3803    6.9664 H           1 LGS       0.0669
     31 H9          8.1915    2.3992    6.3565 H           1 LGS       0.2101
     32 H10         6.0350    5.1507    5.6611 H           1 LGS       0.0908
     33 H11         5.4674    4.3388    8.3035 H           1 LGS       0.2124
     34 H12         1.1899    5.3004    8.4850 H           1 LGS       0.0282
     35 H13         2.2400    6.5856    9.0896 H           1 LGS       0.0282
     36 H14         2.2394    3.6823   10.1021 H           1 LGS       0.0266
     37 H15         1.4517    5.0534   10.8599 H           1 LGS       0.0266
     38 H16         4.0389    6.0524   10.6919 H           1 LGS       0.0265
     39 H17         4.4038    4.3453   10.6881 H           1 LGS       0.0265
     40 H18         4.4600    5.6440   12.9355 H           1 LGS       0.0265
     41 H19         3.7645    4.0237   12.8952 H           1 LGS       0.0265
     42 H20         2.5092    5.6227   14.3466 H           1 LGS       0.0265
     43 H21         1.5442    4.8433   13.1057 H           1 LGS       0.0265
     44 H22         2.1839    7.2314   11.8066 H           1 LGS       0.0265
     45 H23         2.3280    7.7521   13.4561 H           1 LGS       0.0265
     46 H24         0.0656    7.8613   13.7203 H           1 LGS       0.0263
     47 H25        -0.2249    6.2590   13.0625 H           1 LGS       0.0263
     48 H26        -1.3929    7.9855   11.7403 H           1 LGS       0.0230
     49 H27        -0.1767    7.1515   10.7443 H           1 LGS       0.0230
     50 H28         0.1547    8.7834   11.3866 H           1 LGS       0.0230
@<TRIPOS>BOND
     1     1     2   1
     2     2     3   1
     3     2     6   1
     4     3     4   1
     5     3    12   1
     6     4     5   1
     7     5    13   1
     8     6     7   1
     9     6     8   1
    10     8     9   1
    11     8    10   1
    12    10    11   1
    13    10    12   1
    14    12    13   1
    15    13    14   2
    16    14    15   1
    17    15    16   1
    18    16    17   1
    19    17    18   1
    20    18    19   1
    21    19    20   1
    22    20    21   1
    23    21    22   1
    24     1    23   1
    25     2    24   1
    26     3    25   1
    27     4    26   1
    28     4    27   1
    29     6    28   1
    30     7    29   1
    31     8    30   1
    32     9    31   1
    33    10    32   1
    34    11    33   1
    35    15    34   1
    36    15    35   1
    37    16    36   1
    38    16    37   1
    39    17    38   1
    40    17    39   1
    41    18    40   1
    42    18    41   1
    43    19    42   1
    44    19    43   1
    45    20    44   1
    46    20    45   1
    47    21    46   1
    48    21    47   1
    49    22    48   1
    50    22    49   1
    51    22    50   1
@<TRIPOS>SUBSTRUCTURE
     1  LGS      2

