@<TRIPOS>MOLECULE
2wbg_ligand_037
    50    51
SMALL
GAST_HUCK
****
This file was generated by PARSER (from files_GN.cpp)

@<TRIPOS>ATOM
      1 O4          5.5868    1.1825    5.4236 O.3         1 LGS      -0.3867
      2 C4          4.8224    2.3842    5.3212 C.3         1 LGS       0.1103
      3 C5          3.6195    2.3804    6.3035 C.3         1 LGS       0.1113
      4 C6          3.9527    2.3918    7.8136 C.3         1 LGS       0.1120
      5 O6          3.0469    3.3178    8.4290 O.3         1 LGS      -0.2547
      6 C3          4.3605    2.6538    3.8454 C.3         1 LGS       0.1137
      7 O3          5.3578    3.4498    3.1952 O.3         1 LGS      -0.3864
      8 C2          2.9567    3.3398    3.7048 C.3         1 LGS       0.1318
      9 O2          1.9249    2.3498    3.5553 O.3         1 LGS      -0.3843
     10 C1          2.6016    4.2394    4.9206 C.3         1 LGS       0.1770
     11 O1          3.3207    5.4740    4.8367 O.3         1 LGS      -0.3666
     12 N1          2.9054    3.5988    6.1780 N.pl3       1 LGS      -0.2126
     13 C7          2.6325    4.1076    7.3963 C.2         1 LGS       0.2439
     14 N2          1.9640    5.2770    7.5803 N.2         1 LGS      -0.3607
     15 C8          1.5005    6.0276    8.7030 C.3         1 LGS      -0.0300
     16 C9          1.9913    5.6301   10.1183 C.3         1 LGS      -0.0515
     17 C10         3.5193    5.8379   10.3778 C.3         1 LGS      -0.0530
     18 C11         3.9847    7.2937   10.7039 C.3         1 LGS      -0.0531
     19 C12         3.8618    8.3329    9.5524 C.3         1 LGS      -0.0531
     20 C13         5.0453    9.3410    9.4672 C.3         1 LGS      -0.0533
     21 C14         5.0797   10.4242   10.5822 C.3         1 LGS      -0.0559
     22 C15         4.1146   11.6082   10.3510 C.3         1 LGS      -0.0653
     23 H1          5.0857    0.5014    4.9178 H           1 LGS       0.2100
     24 H2          5.4975    3.1919    5.6285 H           1 LGS       0.0645
     25 H3          2.9502    1.5472    6.0757 H           1 LGS       0.0626
     26 H4          4.9971    2.7018    8.0135 H           1 LGS       0.0660
     27 H5          3.8042    1.3923    8.2362 H           1 LGS       0.0660
     28 H6          4.3173    1.7091    3.3007 H           1 LGS       0.0647
     29 H7          5.0283    3.5885    2.2853 H           1 LGS       0.2100
     30 H8          2.9269    3.9507    2.7994 H           1 LGS       0.0669
     31 H9          1.9976    2.0394    2.6264 H           1 LGS       0.2101
     32 H10         1.5351    4.4783    4.8872 H           1 LGS       0.0908
     33 H11         4.2678    5.2283    4.8882 H           1 LGS       0.2124
     34 H12         0.4111    5.9659    8.7002 H           1 LGS       0.0282
     35 H13         1.7526    7.0761    8.5367 H           1 LGS       0.0282
     36 H14         1.7368    4.5706   10.2855 H           1 LGS       0.0266
     37 H15         1.4181    6.2075   10.8671 H           1 LGS       0.0266
     38 H16         4.1119    5.4633    9.5369 H           1 LGS       0.0265
     39 H17         3.7893    5.2273   11.2464 H           1 LGS       0.0265
     40 H18         5.0371    7.2395   11.0129 H           1 LGS       0.0265
     41 H19         3.4311    7.6632   11.5765 H           1 LGS       0.0265
     42 H20         2.9200    8.8923    9.6538 H           1 LGS       0.0265
     43 H21         3.8194    7.8168    8.5910 H           1 LGS       0.0265
     44 H22         5.0368    9.8318    8.4854 H           1 LGS       0.0265
     45 H23         5.9755    8.7691    9.5087 H           1 LGS       0.0265
     46 H24         6.0908   10.8433   10.6377 H           1 LGS       0.0263
     47 H25         4.8693    9.9756   11.5598 H           1 LGS       0.0263
     48 H26         4.1049   12.2597   11.2287 H           1 LGS       0.0230
     49 H27         3.0948   11.2550   10.1697 H           1 LGS       0.0230
     50 H28         4.4401   12.1991    9.4890 H           1 LGS       0.0230
@<TRIPOS>BOND
     1     1     2   1
     2     2     3   1
     3     2     6   1
     4     3     4   1
     5     3    12   1
     6     4     5   1
     7     5    13   1
     8     6     7   1
     9     6     8   1
    10     8     9   1
    11     8    10   1
    12    10    11   1
    13    10    12   1
    14    12    13   1
    15    13    14   2
    16    14    15   1
    17    15    16   1
    18    16    17   1
    19    17    18   1
    20    18    19   1
    21    19    20   1
    22    20    21   1
    23    21    22   1
    24     1    23   1
    25     2    24   1
    26     3    25   1
    27     4    26   1
    28     4    27   1
    29     6    28   1
    30     7    29   1
    31     8    30   1
    32     9    31   1
    33    10    32   1
    34    11    33   1
    35    15    34   1
    36    15    35   1
    37    16    36   1
    38    16    37   1
    39    17    38   1
    40    17    39   1
    41    18    40   1
    42    18    41   1
    43    19    42   1
    44    19    43   1
    45    20    44   1
    46    20    45   1
    47    21    46   1
    48    21    47   1
    49    22    48   1
    50    22    49   1
    51    22    50   1
@<TRIPOS>SUBSTRUCTURE
     1  LGS      2

