@<TRIPOS>MOLECULE
2wbg_ligand_060
    50    51
SMALL
GAST_HUCK
****
This file was generated by PARSER (from files_GN.cpp)

@<TRIPOS>ATOM
      1 O4          5.5900    4.8594    3.3547 O.3         1 LGS      -0.3867
      2 C4          4.5143    4.4820    4.2123 C.3         1 LGS       0.1103
      3 C5          5.0952    3.8967    5.5331 C.3         1 LGS       0.1113
      4 C6          5.6818    4.9548    6.4925 C.3         1 LGS       0.1120
      5 O6          5.2383    4.6062    7.8053 O.3         1 LGS      -0.2547
      6 C3          3.5875    3.4512    3.5118 C.3         1 LGS       0.1137
      7 O3          2.9476    4.0586    2.3904 O.3         1 LGS      -0.3864
      8 C2          2.5104    2.9314    4.5062 C.3         1 LGS       0.1318
      9 O2          1.6723    1.9731    3.8670 O.3         1 LGS      -0.3843
     10 C1          3.1707    2.3343    5.7794 C.3         1 LGS       0.1770
     11 O1          2.1437    1.8944    6.6674 O.3         1 LGS      -0.3666
     12 N1          4.0883    3.3010    6.3383 N.pl3       1 LGS      -0.2126
     13 C7          4.1830    3.7640    7.6031 C.2         1 LGS       0.2439
     14 N2          3.3641    3.4030    8.6163 N.2         1 LGS      -0.3607
     15 C8          3.4402    3.8262    9.9787 C.3         1 LGS      -0.0300
     16 C9          2.1381    4.5272   10.4408 C.3         1 LGS      -0.0515
     17 C10         1.8493    5.8404    9.6531 C.3         1 LGS      -0.0530
     18 C11         1.0556    6.9454   10.4070 C.3         1 LGS      -0.0531
     19 C12         1.3300    7.2228   11.9218 C.3         1 LGS      -0.0531
     20 C13         2.7814    7.3032   12.4944 C.3         1 LGS      -0.0533
     21 C14         3.9068    7.7204   11.4995 C.3         1 LGS      -0.0559
     22 C15         5.1573    8.3157   12.1970 C.3         1 LGS      -0.0653
     23 H1          5.1657    5.2025    2.5391 H           1 LGS       0.2100
     24 H2          3.9232    5.3789    4.4277 H           1 LGS       0.0645
     25 H3          5.8484    3.1400    5.3016 H           1 LGS       0.0626
     26 H4          5.3194    5.9625    6.2672 H           1 LGS       0.0660
     27 H5          6.7720    4.9638    6.4551 H           1 LGS       0.0660
     28 H6          4.1864    2.6102    3.1486 H           1 LGS       0.0647
     29 H7          2.5027    3.3212    1.9200 H           1 LGS       0.2100
     30 H8          1.8705    3.7679    4.8031 H           1 LGS       0.0669
     31 H9          2.2538    1.2305    3.6085 H           1 LGS       0.2101
     32 H10         3.7460    1.4499    5.4937 H           1 LGS       0.0908
     33 H11         2.6128    1.4538    7.4078 H           1 LGS       0.2124
     34 H12         4.2836    4.5066   10.1627 H           1 LGS       0.0282
     35 H13         3.5910    2.9355   10.5891 H           1 LGS       0.0282
     36 H14         2.2560    4.7423   11.5076 H           1 LGS       0.0266
     37 H15         1.2913    3.8373   10.3414 H           1 LGS       0.0266
     38 H16         1.2886    5.5781    8.7501 H           1 LGS       0.0265
     39 H17         2.7866    6.2772    9.3019 H           1 LGS       0.0265
     40 H18        -0.0124    6.7076   10.3118 H           1 LGS       0.0265
     41 H19         1.2127    7.8836    9.8612 H           1 LGS       0.0265
     42 H20         0.7891    6.4698   12.5018 H           1 LGS       0.0265
     43 H21         0.8322    8.1770   12.1456 H           1 LGS       0.0265
     44 H22         3.0554    6.3379   12.9301 H           1 LGS       0.0265
     45 H23         2.7622    8.0153   13.3332 H           1 LGS       0.0265
     46 H24         3.5150    8.4600   10.7809 H           1 LGS       0.0263
     47 H25         4.2311    6.8245   10.9543 H           1 LGS       0.0263
     48 H26         5.9458    8.4835   11.4539 H           1 LGS       0.0230
     49 H27         5.5326    7.6204   12.9601 H           1 LGS       0.0230
     50 H28         4.9126    9.2780   12.6692 H           1 LGS       0.0230
@<TRIPOS>BOND
     1     1     2   1
     2     2     3   1
     3     2     6   1
     4     3     4   1
     5     3    12   1
     6     4     5   1
     7     5    13   1
     8     6     7   1
     9     6     8   1
    10     8     9   1
    11     8    10   1
    12    10    11   1
    13    10    12   1
    14    12    13   1
    15    13    14   2
    16    14    15   1
    17    15    16   1
    18    16    17   1
    19    17    18   1
    20    18    19   1
    21    19    20   1
    22    20    21   1
    23    21    22   1
    24     1    23   1
    25     2    24   1
    26     3    25   1
    27     4    26   1
    28     4    27   1
    29     6    28   1
    30     7    29   1
    31     8    30   1
    32     9    31   1
    33    10    32   1
    34    11    33   1
    35    15    34   1
    36    15    35   1
    37    16    36   1
    38    16    37   1
    39    17    38   1
    40    17    39   1
    41    18    40   1
    42    18    41   1
    43    19    42   1
    44    19    43   1
    45    20    44   1
    46    20    45   1
    47    21    46   1
    48    21    47   1
    49    22    48   1
    50    22    49   1
    51    22    50   1
@<TRIPOS>SUBSTRUCTURE
     1  LGS      2

