@<TRIPOS>MOLECULE
2wbg_ligand_016
    50    51
SMALL
GAST_HUCK
****
This file was generated by PARSER (from files_GN.cpp)

@<TRIPOS>ATOM
      1 O4          9.1232    9.9967    9.2584 O.3         1 LGS      -0.3867
      2 C4          7.7920   10.2269    9.7288 C.3         1 LGS       0.1103
      3 C5          6.7540    9.6643    8.7150 C.3         1 LGS       0.1113
      4 C6          6.7142    8.1231    8.5967 C.3         1 LGS       0.1120
      5 O6          5.3394    7.7350    8.6571 O.3         1 LGS      -0.2547
      6 C3          7.5744   11.7522   10.0257 C.3         1 LGS       0.1137
      7 O3          7.7525   12.0073   11.4244 O.3         1 LGS      -0.3864
      8 C2          6.1756   12.2975    9.5920 C.3         1 LGS       0.1318
      9 O2          6.2158   12.7315    8.2316 O.3         1 LGS      -0.3843
     10 C1          5.0592   11.2214    9.7372 C.3         1 LGS       0.1770
     11 O1          4.8085   11.0498   11.1328 O.3         1 LGS      -0.3666
     12 N1          5.4377    9.9529    9.1578 N.pl3       1 LGS      -0.2126
     13 C7          4.6831    8.8354    9.1230 C.2         1 LGS       0.2439
     14 N2          3.4043    8.7722    9.5566 N.2         1 LGS      -0.3607
     15 C8          2.6453    7.5733    9.7146 C.3         1 LGS      -0.0300
     16 C9          1.2132    7.8634   10.2509 C.3         1 LGS      -0.0515
     17 C10         0.5392    6.6530   10.9785 C.3         1 LGS      -0.0530
     18 C11         0.3393    6.8167   12.5188 C.3         1 LGS      -0.0531
     19 C12         1.6298    6.9274   13.3776 C.3         1 LGS      -0.0531
     20 C13         2.6606    5.7618   13.2472 C.3         1 LGS      -0.0533
     21 C14         2.3886    4.4875   14.0963 C.3         1 LGS      -0.0559
     22 C15         1.2104    4.6062   15.0927 C.3         1 LGS      -0.0653
     23 H1          9.3253    9.0585    9.4690 H           1 LGS       0.2100
     24 H2          7.6717    9.6704   10.6626 H           1 LGS       0.0645
     25 H3          6.9104   10.1151    7.7267 H           1 LGS       0.0626
     26 H4          7.2452    7.6391    9.4198 H           1 LGS       0.0660
     27 H5          7.1543    7.7873    7.6549 H           1 LGS       0.0660
     28 H6          8.3451   12.3330    9.5108 H           1 LGS       0.0647
     29 H7          8.2516   11.2360   11.7695 H           1 LGS       0.2100
     30 H8          5.9190   13.1708   10.1983 H           1 LGS       0.0669
     31 H9          6.0255   13.6929    8.2569 H           1 LGS       0.2101
     32 H10         4.1422   11.5888    9.2655 H           1 LGS       0.0908
     33 H11         3.9317   10.6275   11.2011 H           1 LGS       0.2124
     34 H12         3.1872    6.9386   10.4138 H           1 LGS       0.0282
     35 H13         2.5763    7.0430    8.7606 H           1 LGS       0.0282
     36 H14         0.5877    8.1485    9.4001 H           1 LGS       0.0266
     37 H15         1.2303    8.7253   10.9272 H           1 LGS       0.0266
     38 H16         1.0925    5.7281   10.7791 H           1 LGS       0.0265
     39 H17        -0.4618    6.5193   10.5525 H           1 LGS       0.0265
     40 H18        -0.2614    5.9831   12.8979 H           1 LGS       0.0265
     41 H19        -0.2428    7.7344   12.6801 H           1 LGS       0.0265
     42 H20         1.3293    6.9988   14.4293 H           1 LGS       0.0265
     43 H21         2.1407    7.8657   13.1420 H           1 LGS       0.0265
     44 H22         3.6436    6.1567   13.5205 H           1 LGS       0.0265
     45 H23         2.7163    5.4535   12.1992 H           1 LGS       0.0265
     46 H24         3.2996    4.2566   14.6583 H           1 LGS       0.0263
     47 H25         2.1951    3.6415   13.4215 H           1 LGS       0.0263
     48 H26         1.1711    3.7037   15.7118 H           1 LGS       0.0230
     49 H27         0.2672    4.7036   14.5342 H           1 LGS       0.0230
     50 H28         1.3500    5.4744   15.7512 H           1 LGS       0.0230
@<TRIPOS>BOND
     1     1     2   1
     2     2     3   1
     3     2     6   1
     4     3     4   1
     5     3    12   1
     6     4     5   1
     7     5    13   1
     8     6     7   1
     9     6     8   1
    10     8     9   1
    11     8    10   1
    12    10    11   1
    13    10    12   1
    14    12    13   1
    15    13    14   2
    16    14    15   1
    17    15    16   1
    18    16    17   1
    19    17    18   1
    20    18    19   1
    21    19    20   1
    22    20    21   1
    23    21    22   1
    24     1    23   1
    25     2    24   1
    26     3    25   1
    27     4    26   1
    28     4    27   1
    29     6    28   1
    30     7    29   1
    31     8    30   1
    32     9    31   1
    33    10    32   1
    34    11    33   1
    35    15    34   1
    36    15    35   1
    37    16    36   1
    38    16    37   1
    39    17    38   1
    40    17    39   1
    41    18    40   1
    42    18    41   1
    43    19    42   1
    44    19    43   1
    45    20    44   1
    46    20    45   1
    47    21    46   1
    48    21    47   1
    49    22    48   1
    50    22    49   1
    51    22    50   1
@<TRIPOS>SUBSTRUCTURE
     1  LGS      2

