@<TRIPOS>MOLECULE
2wbg_ligand_013
    50    51
SMALL
GAST_HUCK
****
This file was generated by PARSER (from files_GN.cpp)

@<TRIPOS>ATOM
      1 O4         -0.8939    6.8716   11.6863 O.3         1 LGS      -0.3867
      2 C4          0.5083    6.8945   11.9547 C.3         1 LGS       0.1103
      3 C5          1.2962    6.1627   10.8312 C.3         1 LGS       0.1113
      4 C6          1.1986    6.8204    9.4397 C.3         1 LGS       0.1120
      5 O6          2.5306    6.8910    8.9272 O.3         1 LGS      -0.2547
      6 C3          0.8211    6.2905   13.3624 C.3         1 LGS       0.1137
      7 O3          0.7489    7.3203   14.3578 O.3         1 LGS      -0.3864
      8 C2          2.1961    5.5456   13.4525 C.3         1 LGS       0.1318
      9 O2          2.0192    4.1422   13.2281 O.3         1 LGS      -0.3843
     10 C1          3.2483    6.0196   12.4037 C.3         1 LGS       0.1770
     11 O1          3.8258    7.2539   12.8308 O.3         1 LGS      -0.3666
     12 N1          2.6977    6.1999   11.0821 N.pl3       1 LGS      -0.2126
     13 C7          3.3567    6.5971    9.9666 C.2         1 LGS       0.2439
     14 N2          4.6739    6.6795    9.6658 N.2         1 LGS      -0.3607
     15 C8          5.9375    6.3107   10.2197 C.3         1 LGS      -0.0300
     16 C9          6.7124    5.4536    9.1769 C.3         1 LGS      -0.0515
     17 C10         5.9899    4.1299    8.7962 C.3         1 LGS      -0.0530
     18 C11         6.5418    3.4021    7.5279 C.3         1 LGS      -0.0531
     19 C12         5.5620    3.2722    6.3225 C.3         1 LGS      -0.0531
     20 C13         4.1508    2.7027    6.6728 C.3         1 LGS      -0.0533
     21 C14         3.4621    1.8586    5.5670 C.3         1 LGS      -0.0559
     22 C15         3.0223    2.6621    4.3218 C.3         1 LGS      -0.0653
     23 H1         -1.1451    5.9253   11.6791 H           1 LGS       0.2100
     24 H2          0.8159    7.9466   11.9411 H           1 LGS       0.0645
     25 H3          0.9754    5.1171   10.7753 H           1 LGS       0.0626
     26 H4          0.7908    7.8344    9.4944 H           1 LGS       0.0660
     27 H5          0.5706    6.2294    8.7701 H           1 LGS       0.0660
     28 H6          0.0383    5.5737   13.6164 H           1 LGS       0.0647
     29 H7          1.1386    8.1262   13.9567 H           1 LGS       0.2100
     30 H8          2.6120    5.6522   14.4583 H           1 LGS       0.0669
     31 H9          1.4226    3.8062   13.9327 H           1 LGS       0.2101
     32 H10         4.0394    5.2723   12.3652 H           1 LGS       0.0908
     33 H11         3.1327    7.9475   12.7159 H           1 LGS       0.2124
     34 H12         5.8330    5.7496   11.1540 H           1 LGS       0.0282
     35 H13         6.5066    7.2296   10.4204 H           1 LGS       0.0282
     36 H14         7.7027    5.2168    9.5790 H           1 LGS       0.0266
     37 H15         6.8625    6.0522    8.2745 H           1 LGS       0.0266
     38 H16         4.9356    4.3484    8.6498 H           1 LGS       0.0265
     39 H17         6.0540    3.4485    9.6508 H           1 LGS       0.0265
     40 H18         6.8481    2.3918    7.8116 H           1 LGS       0.0265
     41 H19         7.4438    3.9050    7.1672 H           1 LGS       0.0265
     42 H20         6.0387    2.6217    5.5844 H           1 LGS       0.0265
     43 H21         5.4371    4.2525    5.8581 H           1 LGS       0.0265
     44 H22         3.4851    3.5324    6.9349 H           1 LGS       0.0265
     45 H23         4.2234    2.0620    7.5562 H           1 LGS       0.0265
     46 H24         2.5695    1.3928    5.9959 H           1 LGS       0.0263
     47 H25         4.1360    1.0578    5.2591 H           1 LGS       0.0263
     48 H26         2.5325    1.9950    3.6042 H           1 LGS       0.0230
     49 H27         3.8859    3.1205    3.8341 H           1 LGS       0.0230
     50 H28         2.3124    3.4458    4.6041 H           1 LGS       0.0230
@<TRIPOS>BOND
     1     1     2   1
     2     2     3   1
     3     2     6   1
     4     3     4   1
     5     3    12   1
     6     4     5   1
     7     5    13   1
     8     6     7   1
     9     6     8   1
    10     8     9   1
    11     8    10   1
    12    10    11   1
    13    10    12   1
    14    12    13   1
    15    13    14   2
    16    14    15   1
    17    15    16   1
    18    16    17   1
    19    17    18   1
    20    18    19   1
    21    19    20   1
    22    20    21   1
    23    21    22   1
    24     1    23   1
    25     2    24   1
    26     3    25   1
    27     4    26   1
    28     4    27   1
    29     6    28   1
    30     7    29   1
    31     8    30   1
    32     9    31   1
    33    10    32   1
    34    11    33   1
    35    15    34   1
    36    15    35   1
    37    16    36   1
    38    16    37   1
    39    17    38   1
    40    17    39   1
    41    18    40   1
    42    18    41   1
    43    19    42   1
    44    19    43   1
    45    20    44   1
    46    20    45   1
    47    21    46   1
    48    21    47   1
    49    22    48   1
    50    22    49   1
    51    22    50   1
@<TRIPOS>SUBSTRUCTURE
     1  LGS      2

