@<TRIPOS>MOLECULE
2wbg_ligand_034
    50    51
SMALL
GAST_HUCK
****
This file was generated by PARSER (from files_GN.cpp)

@<TRIPOS>ATOM
      1 O4          0.1497    8.5221   11.7932 O.3         1 LGS      -0.3867
      2 C4          1.1402    7.4959   11.7273 C.3         1 LGS       0.1103
      3 C5          0.6621    6.4067   10.7358 C.3         1 LGS       0.1113
      4 C6          0.6599    6.8139    9.2480 C.3         1 LGS       0.1120
      5 O6          1.1332    5.6717    8.5160 O.3         1 LGS      -0.2547
      6 C3          1.4887    6.9261   13.1497 C.3         1 LGS       0.1137
      7 O3          2.7507    7.4359   13.5811 O.3         1 LGS      -0.3864
      8 C2          1.5387    5.3683   13.2121 C.3         1 LGS       0.1318
      9 O2          0.2086    4.8777   13.4145 O.3         1 LGS      -0.3843
     10 C1          2.1181    4.7238   11.9208 C.3         1 LGS       0.1770
     11 O1          3.5369    4.9140   11.9109 O.3         1 LGS      -0.3666
     12 N1          1.5657    5.3052   10.7209 N.pl3       1 LGS      -0.2126
     13 C7          1.8140    4.9423    9.4436 C.2         1 LGS       0.2439
     14 N2          2.6208    3.9162    9.1049 N.2         1 LGS      -0.3607
     15 C8          2.8869    3.3842    7.8132 C.3         1 LGS      -0.0300
     16 C9          4.3882    3.4833    7.4494 C.3         1 LGS      -0.0515
     17 C10         4.7534    2.6403    6.1912 C.3         1 LGS      -0.0530
     18 C11         6.1893    2.9277    5.6769 C.3         1 LGS      -0.0531
     19 C12         6.5459    2.1452    4.3822 C.3         1 LGS      -0.0531
     20 C13         6.3767    2.9431    3.0567 C.3         1 LGS      -0.0533
     21 C14         7.6020    3.8374    2.7065 C.3         1 LGS      -0.0559
     22 C15         7.3201    4.8093    1.5405 C.3         1 LGS      -0.0653
     23 H1         -0.6371    8.0993   12.2179 H           1 LGS       0.2100
     24 H2          2.0390    7.9566   11.3163 H           1 LGS       0.0645
     25 H3         -0.3322    6.0599   11.0306 H           1 LGS       0.0626
     26 H4          1.3320    7.6493    9.0577 H           1 LGS       0.0660
     27 H5         -0.3454    7.0815    8.9152 H           1 LGS       0.0660
     28 H6          0.7474    7.2735   13.8818 H           1 LGS       0.0647
     29 H7          2.7428    8.3715   13.3045 H           1 LGS       0.2100
     30 H8          2.1401    5.0324   14.0655 H           1 LGS       0.0669
     31 H9          0.2230    4.4624   14.3191 H           1 LGS       0.2101
     32 H10         1.9158    3.6535   11.9255 H           1 LGS       0.0908
     33 H11         3.9294    4.0020   11.8537 H           1 LGS       0.2124
     34 H12         2.2916    3.8873    7.0440 H           1 LGS       0.0282
     35 H13         2.5883    2.3375    7.8342 H           1 LGS       0.0282
     36 H14         4.9831    3.1314    8.2980 H           1 LGS       0.0266
     37 H15         4.6412    4.5346    7.2672 H           1 LGS       0.0266
     38 H16         4.0187    2.8550    5.4063 H           1 LGS       0.0265
     39 H17         4.6683    1.5783    6.4497 H           1 LGS       0.0265
     40 H18         6.8977    2.6372    6.4542 H           1 LGS       0.0265
     41 H19         6.3132    3.9991    5.5088 H           1 LGS       0.0265
     42 H20         5.9242    1.2447    4.3272 H           1 LGS       0.0265
     43 H21         7.5812    1.7996    4.4436 H           1 LGS       0.0265
     44 H22         5.4789    3.5667    3.1019 H           1 LGS       0.0265
     45 H23         6.2363    2.2357    2.2291 H           1 LGS       0.0265
     46 H24         8.4482    3.2014    2.4366 H           1 LGS       0.0263
     47 H25         7.8930    4.4303    3.5828 H           1 LGS       0.0263
     48 H26         8.2201    5.3709    1.3023 H           1 LGS       0.0230
     49 H27         6.5338    5.5125    1.8223 H           1 LGS       0.0230
     50 H28         7.0021    4.2572    0.6532 H           1 LGS       0.0230
@<TRIPOS>BOND
     1     1     2   1
     2     2     3   1
     3     2     6   1
     4     3     4   1
     5     3    12   1
     6     4     5   1
     7     5    13   1
     8     6     7   1
     9     6     8   1
    10     8     9   1
    11     8    10   1
    12    10    11   1
    13    10    12   1
    14    12    13   1
    15    13    14   2
    16    14    15   1
    17    15    16   1
    18    16    17   1
    19    17    18   1
    20    18    19   1
    21    19    20   1
    22    20    21   1
    23    21    22   1
    24     1    23   1
    25     2    24   1
    26     3    25   1
    27     4    26   1
    28     4    27   1
    29     6    28   1
    30     7    29   1
    31     8    30   1
    32     9    31   1
    33    10    32   1
    34    11    33   1
    35    15    34   1
    36    15    35   1
    37    16    36   1
    38    16    37   1
    39    17    38   1
    40    17    39   1
    41    18    40   1
    42    18    41   1
    43    19    42   1
    44    19    43   1
    45    20    44   1
    46    20    45   1
    47    21    46   1
    48    21    47   1
    49    22    48   1
    50    22    49   1
    51    22    50   1
@<TRIPOS>SUBSTRUCTURE
     1  LGS      2

