@<TRIPOS>MOLECULE
2wbg_ligand_061
    50    51
SMALL
GAST_HUCK
****
This file was generated by PARSER (from files_GN.cpp)

@<TRIPOS>ATOM
      1 O4          1.1942    5.6491    9.4297 O.3         1 LGS      -0.3867
      2 C4          2.3291    6.3496    9.9346 C.3         1 LGS       0.1103
      3 C5          3.6492    5.7653    9.3572 C.3         1 LGS       0.1113
      4 C6          3.8402    5.8669    7.8341 C.3         1 LGS       0.1120
      5 O6          5.2362    6.0937    7.6373 O.3         1 LGS      -0.2547
      6 C3          2.3583    6.2893   11.4938 C.3         1 LGS       0.1137
      7 O3          1.5113    7.3099   12.0180 O.3         1 LGS      -0.3864
      8 C2          3.7911    6.3935   12.1267 C.3         1 LGS       0.1318
      9 O2          4.2356    5.1053   12.5786 O.3         1 LGS      -0.3843
     10 C1          4.8507    7.0035   11.1580 C.3         1 LGS       0.1770
     11 O1          4.6344    8.4148   11.0849 O.3         1 LGS      -0.3666
     12 N1          4.7904    6.4716    9.8216 N.pl3       1 LGS      -0.2126
     13 C7          5.6654    6.6443    8.8019 C.2         1 LGS       0.2439
     14 N2          6.8984    7.1994    8.7414 N.2         1 LGS      -0.3607
     15 C8          7.8375    7.8338    9.5998 C.3         1 LGS      -0.0300
     16 C9          7.5355    9.3193    9.9314 C.3         1 LGS      -0.0515
     17 C10         8.7525   10.2752    9.8236 C.3         1 LGS      -0.0530
     18 C11         8.8861   11.0510    8.4751 C.3         1 LGS      -0.0531
     19 C12         9.7732   10.3405    7.4017 C.3         1 LGS      -0.0531
     20 C13        10.3681   11.3087    6.3320 C.3         1 LGS      -0.0533
     21 C14        11.7937   11.8245    6.6726 C.3         1 LGS      -0.0559
     22 C15        12.6050   12.2596    5.4261 C.3         1 LGS      -0.0653
     23 H1          0.9853    6.0517    8.5560 H           1 LGS       0.2100
     24 H2          2.2254    7.3830    9.6055 H           1 LGS       0.0645
     25 H3          3.7422    4.7165    9.6476 H           1 LGS       0.0626
     26 H4          3.3036    6.7170    7.4174 H           1 LGS       0.0660
     27 H5          3.5366    4.9499    7.3174 H           1 LGS       0.0660
     28 H6          1.9063    5.3419   11.8029 H           1 LGS       0.0647
     29 H7          2.0822    8.0951   12.1656 H           1 LGS       0.2100
     30 H8          3.7478    7.0071   13.0308 H           1 LGS       0.0669
     31 H9          3.9532    4.4530   11.9003 H           1 LGS       0.2101
     32 H10         5.8370    6.8349   11.5916 H           1 LGS       0.0908
     33 H11         3.6750    8.5591   11.2258 H           1 LGS       0.2124
     34 H12         8.7915    7.7779    9.0757 H           1 LGS       0.0282
     35 H13         7.9491    7.2408   10.5078 H           1 LGS       0.0282
     36 H14         7.1945    9.3545   10.9653 H           1 LGS       0.0266
     37 H15         6.7022    9.6740    9.3182 H           1 LGS       0.0266
     38 H16         9.6821    9.7287   10.0267 H           1 LGS       0.0265
     39 H17         8.6620   11.0336   10.6129 H           1 LGS       0.0265
     40 H18         9.2962   12.0328    8.7133 H           1 LGS       0.0265
     41 H19         7.8809   11.2025    8.0602 H           1 LGS       0.0265
     42 H20         9.1545    9.5973    6.8829 H           1 LGS       0.0265
     43 H21        10.5987    9.8001    7.8940 H           1 LGS       0.0265
     44 H22         9.6956   12.1636    6.1881 H           1 LGS       0.0265
     45 H23        10.4168   10.7584    5.3881 H           1 LGS       0.0265
     46 H24        12.3590   11.0298    7.1772 H           1 LGS       0.0263
     47 H25        11.7295   12.6768    7.3551 H           1 LGS       0.0263
     48 H26        13.5947   12.6034    5.7334 H           1 LGS       0.0230
     49 H27        12.0905   13.0825    4.9036 H           1 LGS       0.0230
     50 H28        12.7238   11.4147    4.7333 H           1 LGS       0.0230
@<TRIPOS>BOND
     1     1     2   1
     2     2     3   1
     3     2     6   1
     4     3     4   1
     5     3    12   1
     6     4     5   1
     7     5    13   1
     8     6     7   1
     9     6     8   1
    10     8     9   1
    11     8    10   1
    12    10    11   1
    13    10    12   1
    14    12    13   1
    15    13    14   2
    16    14    15   1
    17    15    16   1
    18    16    17   1
    19    17    18   1
    20    18    19   1
    21    19    20   1
    22    20    21   1
    23    21    22   1
    24     1    23   1
    25     2    24   1
    26     3    25   1
    27     4    26   1
    28     4    27   1
    29     6    28   1
    30     7    29   1
    31     8    30   1
    32     9    31   1
    33    10    32   1
    34    11    33   1
    35    15    34   1
    36    15    35   1
    37    16    36   1
    38    16    37   1
    39    17    38   1
    40    17    39   1
    41    18    40   1
    42    18    41   1
    43    19    42   1
    44    19    43   1
    45    20    44   1
    46    20    45   1
    47    21    46   1
    48    21    47   1
    49    22    48   1
    50    22    49   1
    51    22    50   1
@<TRIPOS>SUBSTRUCTURE
     1  LGS      2

