@<TRIPOS>MOLECULE
2wbg_ligand_045
    50    51
SMALL
GAST_HUCK
****
This file was generated by PARSER (from files_GN.cpp)

@<TRIPOS>ATOM
      1 O4          9.0953   12.7015    8.8591 O.3         1 LGS      -0.3867
      2 C4          8.1740   11.9881    9.6826 C.3         1 LGS       0.1103
      3 C5          7.9474   10.5599    9.1149 C.3         1 LGS       0.1113
      4 C6          9.1811    9.6364    9.1793 C.3         1 LGS       0.1120
      5 O6          8.6739    8.3360    9.4709 O.3         1 LGS      -0.2547
      6 C3          6.8346   12.7759    9.8216 C.3         1 LGS       0.1137
      7 O3          6.9246   13.6819   10.9216 O.3         1 LGS      -0.3864
      8 C2          5.5642   11.8788    9.9660 C.3         1 LGS       0.1318
      9 O2          4.9228   11.7778    8.6909 O.3         1 LGS      -0.3843
     10 C1          5.8462   10.4357   10.4851 C.3         1 LGS       0.1770
     11 O1          6.0393   10.4623   11.9001 O.3         1 LGS      -0.3666
     12 N1          7.0065    9.8186    9.8881 N.pl3       1 LGS      -0.2126
     13 C7          7.4684    8.5509   10.0640 C.2         1 LGS       0.2439
     14 N2          6.9233    7.4619   10.6551 N.2         1 LGS      -0.3607
     15 C8          5.7001    7.1050   11.3008 C.3         1 LGS      -0.0300
     16 C9          5.0100    6.0234   10.4220 C.3         1 LGS      -0.0515
     17 C10         3.6107    5.5566   10.9110 C.3         1 LGS      -0.0530
     18 C11         2.5165    6.6716   10.9674 C.3         1 LGS      -0.0531
     19 C12         1.8819    6.8787   12.3707 C.3         1 LGS      -0.0531
     20 C13         0.8410    5.7810   12.7828 C.3         1 LGS      -0.0533
     21 C14         1.0788    5.1218   14.1719 C.3         1 LGS      -0.0559
     22 C15         2.2945    4.1598   14.2266 C.3         1 LGS      -0.0653
     23 H1          8.6904   12.7224    7.9654 H           1 LGS       0.2100
     24 H2          8.6309   11.8972   10.6734 H           1 LGS       0.0645
     25 H3          7.5855   10.6233    8.0851 H           1 LGS       0.0626
     26 H4          9.8655    9.9285    9.9828 H           1 LGS       0.0660
     27 H5          9.7237    9.6313    8.2339 H           1 LGS       0.0660
     28 H6          6.7055   13.4090    8.9395 H           1 LGS       0.0647
     29 H7          6.8712   13.1206   11.7218 H           1 LGS       0.2100
     30 H8          4.8439   12.3514   10.6358 H           1 LGS       0.0669
     31 H9          4.0072   11.4784    8.8736 H           1 LGS       0.2101
     32 H10         4.9665    9.8309   10.2716 H           1 LGS       0.0908
     33 H11         6.9986   10.3073   12.0414 H           1 LGS       0.2124
     34 H12         5.0290    7.9541   11.4406 H           1 LGS       0.0282
     35 H13         5.9398    6.6853   12.2841 H           1 LGS       0.0282
     36 H14         5.6647    5.1428   10.3892 H           1 LGS       0.0266
     37 H15         4.9150    6.3980    9.3898 H           1 LGS       0.0266
     38 H16         3.7400    5.0732   11.8889 H           1 LGS       0.0265
     39 H17         3.2713    4.7795   10.2112 H           1 LGS       0.0265
     40 H18         1.7087    6.4237   10.2614 H           1 LGS       0.0265
     41 H19         2.9516    7.6280   10.6480 H           1 LGS       0.0265
     42 H20         1.3703    7.8471   12.3614 H           1 LGS       0.0265
     43 H21         2.6836    6.9568   13.1096 H           1 LGS       0.0265
     44 H22         0.8030    4.9888   12.0296 H           1 LGS       0.0265
     45 H23        -0.1528    6.2425   12.8097 H           1 LGS       0.0265
     46 H24         0.1910    4.5356   14.4323 H           1 LGS       0.0263
     47 H25         1.2066    5.9004   14.9336 H           1 LGS       0.0263
     48 H26         2.3383    3.6832   15.2157 H           1 LGS       0.0230
     49 H27         3.2313    4.7052   14.0639 H           1 LGS       0.0230
     50 H28         2.1976    3.3763   13.4657 H           1 LGS       0.0230
@<TRIPOS>BOND
     1     1     2   1
     2     2     3   1
     3     2     6   1
     4     3     4   1
     5     3    12   1
     6     4     5   1
     7     5    13   1
     8     6     7   1
     9     6     8   1
    10     8     9   1
    11     8    10   1
    12    10    11   1
    13    10    12   1
    14    12    13   1
    15    13    14   2
    16    14    15   1
    17    15    16   1
    18    16    17   1
    19    17    18   1
    20    18    19   1
    21    19    20   1
    22    20    21   1
    23    21    22   1
    24     1    23   1
    25     2    24   1
    26     3    25   1
    27     4    26   1
    28     4    27   1
    29     6    28   1
    30     7    29   1
    31     8    30   1
    32     9    31   1
    33    10    32   1
    34    11    33   1
    35    15    34   1
    36    15    35   1
    37    16    36   1
    38    16    37   1
    39    17    38   1
    40    17    39   1
    41    18    40   1
    42    18    41   1
    43    19    42   1
    44    19    43   1
    45    20    44   1
    46    20    45   1
    47    21    46   1
    48    21    47   1
    49    22    48   1
    50    22    49   1
    51    22    50   1
@<TRIPOS>SUBSTRUCTURE
     1  LGS      2

