@<TRIPOS>MOLECULE
2wbg_ligand_043
    50    51
SMALL
GAST_HUCK
****
This file was generated by PARSER (from files_GN.cpp)

@<TRIPOS>ATOM
      1 O4          9.6599    7.4482    9.7438 O.3         1 LGS      -0.3867
      2 C4          8.4088    8.0652    9.4476 C.3         1 LGS       0.1103
      3 C5          7.4455    7.0244    8.8025 C.3         1 LGS       0.1113
      4 C6          6.9153    5.9435    9.7721 C.3         1 LGS       0.1120
      5 O6          5.4967    5.8875    9.6030 O.3         1 LGS      -0.2547
      6 C3          8.6174    9.2731    8.4938 C.3         1 LGS       0.1137
      7 O3          9.4251   10.2715    9.1219 O.3         1 LGS      -0.3864
      8 C2          7.2452    9.8861    8.0950 C.3         1 LGS       0.1318
      9 O2          7.4492   10.9402    7.1537 O.3         1 LGS      -0.3843
     10 C1          6.2977    8.8044    7.5025 C.3         1 LGS       0.1770
     11 O1          5.0343    9.4069    7.2422 O.3         1 LGS      -0.3666
     12 N1          6.2497    7.6501    8.3663 N.pl3       1 LGS      -0.2126
     13 C7          5.1824    6.9810    8.8557 C.2         1 LGS       0.2439
     14 N2          3.9031    7.3349    8.6174 N.2         1 LGS      -0.3607
     15 C8          2.7029    6.7018    9.0470 C.3         1 LGS      -0.0300
     16 C9          1.9324    7.6317   10.0131 C.3         1 LGS      -0.0515
     17 C10         0.4810    7.1373   10.2889 C.3         1 LGS      -0.0530
     18 C11        -0.1332    7.6467   11.6240 C.3         1 LGS      -0.0531
     19 C12         0.5442    7.1435   12.9325 C.3         1 LGS      -0.0531
     20 C13         0.4971    5.6050   13.1489 C.3         1 LGS      -0.0533
     21 C14         1.1906    5.1157   14.4552 C.3         1 LGS      -0.0559
     22 C15         2.5851    4.4909   14.2067 C.3         1 LGS      -0.0653
     23 H1          9.4573    6.7682   10.4183 H           1 LGS       0.2100
     24 H2          7.9809    8.4346   10.3865 H           1 LGS       0.0645
     25 H3          7.9378    6.5481    7.9475 H           1 LGS       0.0626
     26 H4          7.1331    6.1814   10.8189 H           1 LGS       0.0660
     27 H5          7.3473    4.9652    9.5437 H           1 LGS       0.0660
     28 H6          9.1378    8.9377    7.5912 H           1 LGS       0.0647
     29 H7         10.2932    9.8424    9.2799 H           1 LGS       0.2100
     30 H8          6.7829   10.3194    8.9888 H           1 LGS       0.0669
     31 H9          6.5634   11.3493    7.0324 H           1 LGS       0.2101
     32 H10         6.6978    8.4848    6.5383 H           1 LGS       0.0908
     33 H11         4.6836    9.6710    8.1195 H           1 LGS       0.2124
     34 H12         2.9086    5.7477    9.5426 H           1 LGS       0.0282
     35 H13         2.0968    6.4997    8.1638 H           1 LGS       0.0282
     36 H14         1.8800    8.6458    9.6026 H           1 LGS       0.0266
     37 H15         2.5128    7.6887   10.9389 H           1 LGS       0.0266
     38 H16         0.4362    6.0520   10.2650 H           1 LGS       0.0265
     39 H17        -0.1502    7.4766    9.4582 H           1 LGS       0.0265
     40 H18        -1.1921    7.3628   11.6394 H           1 LGS       0.0265
     41 H19        -0.1071    8.7361   11.6104 H           1 LGS       0.0265
     42 H20         0.0296    7.6223   13.7637 H           1 LGS       0.0265
     43 H21         1.5827    7.4803   12.9708 H           1 LGS       0.0265
     44 H22         0.9446    5.0923   12.2969 H           1 LGS       0.0265
     45 H23        -0.5489    5.2999   13.1732 H           1 LGS       0.0265
     46 H24         0.5649    4.3538   14.9348 H           1 LGS       0.0263
     47 H25         1.2887    5.9361   15.1705 H           1 LGS       0.0263
     48 H26         3.0567    4.2250   15.1554 H           1 LGS       0.0230
     49 H27         3.2333    5.1996   13.6808 H           1 LGS       0.0230
     50 H28         2.4884    3.5854   13.6022 H           1 LGS       0.0230
@<TRIPOS>BOND
     1     1     2   1
     2     2     3   1
     3     2     6   1
     4     3     4   1
     5     3    12   1
     6     4     5   1
     7     5    13   1
     8     6     7   1
     9     6     8   1
    10     8     9   1
    11     8    10   1
    12    10    11   1
    13    10    12   1
    14    12    13   1
    15    13    14   2
    16    14    15   1
    17    15    16   1
    18    16    17   1
    19    17    18   1
    20    18    19   1
    21    19    20   1
    22    20    21   1
    23    21    22   1
    24     1    23   1
    25     2    24   1
    26     3    25   1
    27     4    26   1
    28     4    27   1
    29     6    28   1
    30     7    29   1
    31     8    30   1
    32     9    31   1
    33    10    32   1
    34    11    33   1
    35    15    34   1
    36    15    35   1
    37    16    36   1
    38    16    37   1
    39    17    38   1
    40    17    39   1
    41    18    40   1
    42    18    41   1
    43    19    42   1
    44    19    43   1
    45    20    44   1
    46    20    45   1
    47    21    46   1
    48    21    47   1
    49    22    48   1
    50    22    49   1
    51    22    50   1
@<TRIPOS>SUBSTRUCTURE
     1  LGS      2

