@<TRIPOS>MOLECULE
2wbg_ligand_052
    50    51
SMALL
GAST_HUCK
****
This file was generated by PARSER (from files_GN.cpp)

@<TRIPOS>ATOM
      1 O4          8.4735    1.6377    4.8356 O.3         1 LGS      -0.3867
      2 C4          7.7379    2.8599    4.7908 C.3         1 LGS       0.1103
      3 C5          6.2485    2.5541    4.4734 C.3         1 LGS       0.1113
      4 C6          5.4474    1.8150    5.5695 C.3         1 LGS       0.1120
      5 O6          4.1427    2.4032    5.5687 O.3         1 LGS      -0.2547
      6 C3          8.3618    3.8591    3.7573 C.3         1 LGS       0.1137
      7 O3          9.2747    4.7162    4.4463 O.3         1 LGS      -0.3864
      8 C2          7.3217    4.7108    2.9537 C.3         1 LGS       0.1318
      9 O2          6.9823    4.0460    1.7338 O.3         1 LGS      -0.3843
     10 C1          6.0017    4.9591    3.7372 C.3         1 LGS       0.1770
     11 O1          6.2257    5.9764    4.7141 O.3         1 LGS      -0.3666
     12 N1          5.5158    3.7645    4.3860 N.pl3       1 LGS      -0.2126
     13 C7          4.3516    3.6433    5.0489 C.2         1 LGS       0.2439
     14 N2          3.4644    4.6532    5.1491 N.2         1 LGS      -0.3607
     15 C8          2.1785    4.6435    5.7461 C.3         1 LGS      -0.0300
     16 C9          2.0474    5.7084    6.8652 C.3         1 LGS      -0.0515
     17 C10         2.4312    5.2166    8.2909 C.3         1 LGS      -0.0530
     18 C11         1.6182    5.9230    9.4177 C.3         1 LGS      -0.0531
     19 C12         1.8749    5.3377   10.8375 C.3         1 LGS      -0.0531
     20 C13         1.7607    6.3404   12.0233 C.3         1 LGS      -0.0533
     21 C14         0.3437    6.8441   12.4187 C.3         1 LGS      -0.0559
     22 C15        -0.3366    7.8102   11.4216 C.3         1 LGS      -0.0653
     23 H1          9.3481    1.8757    5.2087 H           1 LGS       0.2100
     24 H2          7.7847    3.3055    5.7898 H           1 LGS       0.0645
     25 H3          6.1703    2.0123    3.5241 H           1 LGS       0.0626
     26 H4          5.8907    1.9606    6.5596 H           1 LGS       0.0660
     27 H5          5.3819    0.7427    5.3685 H           1 LGS       0.0660
     28 H6          8.9594    3.2949    3.0376 H           1 LGS       0.0647
     29 H7          9.7814    5.1799    3.7463 H           1 LGS       0.2100
     30 H8          7.7599    5.6738    2.6743 H           1 LGS       0.0669
     31 H9          7.7877    4.0889    1.1765 H           1 LGS       0.2101
     32 H10         5.2417    5.3243    3.0381 H           1 LGS       0.0908
     33 H11         5.3370    6.2091    5.0578 H           1 LGS       0.2124
     34 H12         1.9115    3.6555    6.1289 H           1 LGS       0.0282
     35 H13         1.4718    4.8876    4.9492 H           1 LGS       0.0282
     36 H14         1.0070    6.0380    6.8754 H           1 LGS       0.0266
     37 H15         2.6600    6.5782    6.6095 H           1 LGS       0.0266
     38 H16         3.4977    5.4014    8.4498 H           1 LGS       0.0265
     39 H17         2.2663    4.1397    8.3646 H           1 LGS       0.0265
     40 H18         0.5528    5.8217    9.1942 H           1 LGS       0.0265
     41 H19         1.8632    6.9868    9.4055 H           1 LGS       0.0265
     42 H20         2.8899    4.9317   10.8622 H           1 LGS       0.0265
     43 H21         1.1955    4.4984   11.0104 H           1 LGS       0.0265
     44 H22         2.4124    7.1980   11.8393 H           1 LGS       0.0265
     45 H23         2.1623    5.8281   12.9028 H           1 LGS       0.0265
     46 H24         0.4364    7.3815   13.3676 H           1 LGS       0.0263
     47 H25        -0.3154    5.9895   12.5935 H           1 LGS       0.0263
     48 H26        -1.2552    8.2040   11.8631 H           1 LGS       0.0230
     49 H27        -0.6000    7.2947   10.4994 H           1 LGS       0.0230
     50 H28         0.3221    8.6499   11.1893 H           1 LGS       0.0230
@<TRIPOS>BOND
     1     1     2   1
     2     2     3   1
     3     2     6   1
     4     3     4   1
     5     3    12   1
     6     4     5   1
     7     5    13   1
     8     6     7   1
     9     6     8   1
    10     8     9   1
    11     8    10   1
    12    10    11   1
    13    10    12   1
    14    12    13   1
    15    13    14   2
    16    14    15   1
    17    15    16   1
    18    16    17   1
    19    17    18   1
    20    18    19   1
    21    19    20   1
    22    20    21   1
    23    21    22   1
    24     1    23   1
    25     2    24   1
    26     3    25   1
    27     4    26   1
    28     4    27   1
    29     6    28   1
    30     7    29   1
    31     8    30   1
    32     9    31   1
    33    10    32   1
    34    11    33   1
    35    15    34   1
    36    15    35   1
    37    16    36   1
    38    16    37   1
    39    17    38   1
    40    17    39   1
    41    18    40   1
    42    18    41   1
    43    19    42   1
    44    19    43   1
    45    20    44   1
    46    20    45   1
    47    21    46   1
    48    21    47   1
    49    22    48   1
    50    22    49   1
    51    22    50   1
@<TRIPOS>SUBSTRUCTURE
     1  LGS      2

