@<TRIPOS>MOLECULE
2wbg_ligand_041
    50    51
SMALL
GAST_HUCK
****
This file was generated by PARSER (from files_GN.cpp)

@<TRIPOS>ATOM
      1 O4          7.4046   13.4376    8.6478 O.3         1 LGS      -0.3867
      2 C4          7.1100   12.1795    9.2571 C.3         1 LGS       0.1103
      3 C5          5.8197   11.5789    8.6350 C.3         1 LGS       0.1113
      4 C6          5.9274   11.1632    7.1547 C.3         1 LGS       0.1120
      5 O6          5.0920   10.0119    7.0300 O.3         1 LGS      -0.2547
      6 C3          7.0014   12.3177   10.8089 C.3         1 LGS       0.1137
      7 O3          8.2788   12.1028   11.4112 O.3         1 LGS      -0.3864
      8 C2          5.9221   11.3978   11.4663 C.3         1 LGS       0.1318
      9 O2          4.7115   12.1489   11.6096 O.3         1 LGS      -0.3843
     10 C1          5.6046   10.1043   10.6534 C.3         1 LGS       0.1770
     11 O1          6.6082    9.1125   10.8886 O.3         1 LGS      -0.3666
     12 N1          5.4720   10.3354    9.2347 N.pl3       1 LGS      -0.2126
     13 C7          5.0524    9.4697    8.2769 C.2         1 LGS       0.2439
     14 N2          4.5856    8.1981    8.3319 N.2         1 LGS      -0.3607
     15 C8          4.3316    7.2333    9.3545 C.3         1 LGS      -0.0300
     16 C9          3.0683    6.3812    9.0487 C.3         1 LGS      -0.0515
     17 C10         3.1020    5.5115    7.7498 C.3         1 LGS      -0.0530
     18 C11         3.2094    3.9679    7.9637 C.3         1 LGS      -0.0531
     19 C12         4.6170    3.4262    8.3387 C.3         1 LGS      -0.0531
     20 C13         5.5101    3.1043    7.1048 C.3         1 LGS      -0.0533
     21 C14         7.0340    3.0461    7.4106 C.3         1 LGS      -0.0559
     22 C15         7.6650    4.4207    7.7481 C.3         1 LGS      -0.0653
     23 H1          6.6291   14.0120    8.8319 H           1 LGS       0.2100
     24 H2          7.9438   11.5080    9.0248 H           1 LGS       0.0645
     25 H3          4.9867   12.2839    8.7628 H           1 LGS       0.0626
     26 H4          6.9519   10.8857    6.8823 H           1 LGS       0.0660
     27 H5          5.5875   11.9595    6.4904 H           1 LGS       0.0660
     28 H6          6.7517   13.3533   11.0452 H           1 LGS       0.0647
     29 H7          8.3288   11.1488   11.6299 H           1 LGS       0.2100
     30 H8          6.2315   11.1214   12.4795 H           1 LGS       0.0669
     31 H9          4.0289   11.4890   11.8639 H           1 LGS       0.2101
     32 H10         4.6630    9.7201   11.0427 H           1 LGS       0.0908
     33 H11         7.4332    9.4629   10.4856 H           1 LGS       0.2124
     34 H12         4.1587    7.7067   10.3181 H           1 LGS       0.0282
     35 H13         5.2075    6.5949    9.4600 H           1 LGS       0.0282
     36 H14         2.2191    7.0730    8.9755 H           1 LGS       0.0266
     37 H15         2.8634    5.7377    9.9111 H           1 LGS       0.0266
     38 H16         3.8971    5.8553    7.0831 H           1 LGS       0.0265
     39 H17         2.1581    5.6813    7.2174 H           1 LGS       0.0265
     40 H18         2.8773    3.4693    7.0486 H           1 LGS       0.0265
     41 H19         2.5018    3.6777    8.7481 H           1 LGS       0.0265
     42 H20         4.4846    2.4990    8.9079 H           1 LGS       0.0265
     43 H21         5.1161    4.1356    8.9969 H           1 LGS       0.0265
     44 H22         5.3393    3.8404    6.3129 H           1 LGS       0.0265
     45 H23         5.2060    2.1233    6.7131 H           1 LGS       0.0265
     46 H24         7.5459    2.6455    6.5235 H           1 LGS       0.0263
     47 H25         7.2113    2.3484    8.2358 H           1 LGS       0.0263
     48 H26         8.7454    4.3016    7.8719 H           1 LGS       0.0230
     49 H27         7.2435    4.8260    8.6734 H           1 LGS       0.0230
     50 H28         7.4887    5.1269    6.9290 H           1 LGS       0.0230
@<TRIPOS>BOND
     1     1     2   1
     2     2     3   1
     3     2     6   1
     4     3     4   1
     5     3    12   1
     6     4     5   1
     7     5    13   1
     8     6     7   1
     9     6     8   1
    10     8     9   1
    11     8    10   1
    12    10    11   1
    13    10    12   1
    14    12    13   1
    15    13    14   2
    16    14    15   1
    17    15    16   1
    18    16    17   1
    19    17    18   1
    20    18    19   1
    21    19    20   1
    22    20    21   1
    23    21    22   1
    24     1    23   1
    25     2    24   1
    26     3    25   1
    27     4    26   1
    28     4    27   1
    29     6    28   1
    30     7    29   1
    31     8    30   1
    32     9    31   1
    33    10    32   1
    34    11    33   1
    35    15    34   1
    36    15    35   1
    37    16    36   1
    38    16    37   1
    39    17    38   1
    40    17    39   1
    41    18    40   1
    42    18    41   1
    43    19    42   1
    44    19    43   1
    45    20    44   1
    46    20    45   1
    47    21    46   1
    48    21    47   1
    49    22    48   1
    50    22    49   1
    51    22    50   1
@<TRIPOS>SUBSTRUCTURE
     1  LGS      2

