@<TRIPOS>MOLECULE
2wbg_ligand_040
    50    51
SMALL
GAST_HUCK
****
This file was generated by PARSER (from files_GN.cpp)

@<TRIPOS>ATOM
      1 O4          0.6667    7.6359   14.5337 O.3         1 LGS      -0.3867
      2 C4          1.4526    6.7231   13.7727 C.3         1 LGS       0.1103
      3 C5          0.6523    6.2504   12.5189 C.3         1 LGS       0.1113
      4 C6          0.4120    7.3190   11.4230 C.3         1 LGS       0.1120
      5 O6          0.7274    6.7080   10.1653 O.3         1 LGS      -0.2547
      6 C3          1.9235    5.5296   14.6786 C.3         1 LGS       0.1137
      7 O3          3.2460    5.7522   15.1657 O.3         1 LGS      -0.3864
      8 C2          1.8776    4.1474   13.9628 C.3         1 LGS       0.1318
      9 O2          0.5693    3.6115   14.1460 O.3         1 LGS      -0.3843
     10 C1          2.1843    4.2525   12.4414 C.3         1 LGS       0.1770
     11 O1          3.5611    4.5758   12.2500 O.3         1 LGS      -0.3666
     12 N1          1.3985    5.2825   11.8014 N.pl3       1 LGS      -0.2126
     13 C7          1.4388    5.5954   10.4982 C.2         1 LGS       0.2439
     14 N2          2.1628    4.8947    9.5949 N.2         1 LGS      -0.3607
     15 C8          2.4159    5.2248    8.2402 C.3         1 LGS      -0.0300
     16 C9          3.1486    4.0835    7.4868 C.3         1 LGS      -0.0515
     17 C10         4.2186    3.2873    8.2866 C.3         1 LGS      -0.0530
     18 C11         5.4763    4.0724    8.7547 C.3         1 LGS      -0.0531
     19 C12         6.2585    4.8222    7.6286 C.3         1 LGS      -0.0531
     20 C13         7.8086    4.7470    7.7585 C.3         1 LGS      -0.0533
     21 C14         8.4277    5.4805    8.9831 C.3         1 LGS      -0.0559
     22 C15         8.7812    6.9632    8.7300 C.3         1 LGS      -0.0653
     23 H1          0.4099    8.3410   13.9065 H           1 LGS       0.2100
     24 H2          2.3394    7.2664   13.4311 H           1 LGS       0.0645
     25 H3         -0.3043    5.8135   12.8280 H           1 LGS       0.0626
     26 H4          1.0618    8.1862   11.5597 H           1 LGS       0.0660
     27 H5         -0.6257    7.6617   11.4258 H           1 LGS       0.0660
     28 H6          1.2887    5.4882   15.5700 H           1 LGS       0.0647
     29 H7          3.4320    4.9997   15.7714 H           1 LGS       0.2100
     30 H8          2.5749    3.4447   14.4287 H           1 LGS       0.0669
     31 H9          0.4808    3.4752   15.1154 H           1 LGS       0.2101
     32 H10         1.9819    3.2941   11.9612 H           1 LGS       0.0908
     33 H11         4.0373    3.7248   12.1834 H           1 LGS       0.2124
     34 H12         3.0281    6.1274    8.2153 H           1 LGS       0.0282
     35 H13         1.4752    5.4354    7.7288 H           1 LGS       0.0282
     36 H14         3.6120    4.5000    6.5891 H           1 LGS       0.0266
     37 H15         2.3940    3.3666    7.1500 H           1 LGS       0.0266
     38 H16         4.5497    2.4479    7.6650 H           1 LGS       0.0265
     39 H17         3.7383    2.8506    9.1673 H           1 LGS       0.0265
     40 H18         6.1359    3.3467    9.2353 H           1 LGS       0.0265
     41 H19         5.1866    4.7902    9.5249 H           1 LGS       0.0265
     42 H20         5.9448    5.8695    7.6098 H           1 LGS       0.0265
     43 H21         5.9901    4.3952    6.6569 H           1 LGS       0.0265
     44 H22         8.2567    5.1423    6.8423 H           1 LGS       0.0265
     45 H23         8.0913    3.6921    7.8093 H           1 LGS       0.0265
     46 H24         9.3510    4.9672    9.2583 H           1 LGS       0.0263
     47 H25         7.7555    5.4190    9.8403 H           1 LGS       0.0263
     48 H26         9.2414    7.3911    9.6244 H           1 LGS       0.0230
     49 H27         7.8860    7.5399    8.4888 H           1 LGS       0.0230
     50 H28         9.4931    7.0492    7.9048 H           1 LGS       0.0230
@<TRIPOS>BOND
     1     1     2   1
     2     2     3   1
     3     2     6   1
     4     3     4   1
     5     3    12   1
     6     4     5   1
     7     5    13   1
     8     6     7   1
     9     6     8   1
    10     8     9   1
    11     8    10   1
    12    10    11   1
    13    10    12   1
    14    12    13   1
    15    13    14   2
    16    14    15   1
    17    15    16   1
    18    16    17   1
    19    17    18   1
    20    18    19   1
    21    19    20   1
    22    20    21   1
    23    21    22   1
    24     1    23   1
    25     2    24   1
    26     3    25   1
    27     4    26   1
    28     4    27   1
    29     6    28   1
    30     7    29   1
    31     8    30   1
    32     9    31   1
    33    10    32   1
    34    11    33   1
    35    15    34   1
    36    15    35   1
    37    16    36   1
    38    16    37   1
    39    17    38   1
    40    17    39   1
    41    18    40   1
    42    18    41   1
    43    19    42   1
    44    19    43   1
    45    20    44   1
    46    20    45   1
    47    21    46   1
    48    21    47   1
    49    22    48   1
    50    22    49   1
    51    22    50   1
@<TRIPOS>SUBSTRUCTURE
     1  LGS      2

