@<TRIPOS>MOLECULE
2wbg_ligand_047
    50    51
SMALL
GAST_HUCK
****
This file was generated by PARSER (from files_GN.cpp)

@<TRIPOS>ATOM
      1 O4          2.4875    8.3167   14.3130 O.3         1 LGS      -0.3867
      2 C4          2.4261    7.0761   13.6163 C.3         1 LGS       0.1103
      3 C5          2.6760    7.2810   12.0974 C.3         1 LGS       0.1113
      4 C6          4.1305    7.6005   11.6890 C.3         1 LGS       0.1120
      5 O6          4.3063    7.0201   10.3963 O.3         1 LGS      -0.2547
      6 C3          1.0567    6.3837   13.9134 C.3         1 LGS       0.1137
      7 O3          1.2046    5.5327   15.0542 O.3         1 LGS      -0.3864
      8 C2          0.4616    5.5839   12.7132 C.3         1 LGS       0.1318
      9 O2         -0.4666    6.3965   11.9907 O.3         1 LGS      -0.3843
     10 C1          1.5445    5.0670   11.7259 C.3         1 LGS       0.1770
     11 O1          2.2959    4.0156   12.3263 O.3         1 LGS      -0.3666
     12 N1          2.4796    6.0961   11.3470 N.pl3       1 LGS      -0.2126
     13 C7          3.4082    5.9933   10.3805 C.2         1 LGS       0.2439
     14 N2          3.4077    4.9954    9.4664 N.2         1 LGS      -0.3607
     15 C8          4.3139    4.8001    8.3926 C.3         1 LGS      -0.0300
     16 C9          4.8880    3.3493    8.4292 C.3         1 LGS      -0.0515
     17 C10         5.6234    2.9175    7.1195 C.3         1 LGS      -0.0530
     18 C11         7.1713    3.1404    7.1180 C.3         1 LGS      -0.0531
     19 C12         7.9506    2.8446    5.7757 C.3         1 LGS      -0.0531
     20 C13         7.1305    2.3513    4.5308 C.3         1 LGS      -0.0533
     21 C14         7.8299    1.2097    3.7129 C.3         1 LGS      -0.0559
     22 C15         6.8224    0.1379    3.1985 C.3         1 LGS      -0.0653
     23 H1          2.8775    8.9613   13.6785 H           1 LGS       0.2100
     24 H2          3.2299    6.4337   13.9900 H           1 LGS       0.0645
     25 H3          2.0136    8.0579   11.7130 H           1 LGS       0.0626
     26 H4          4.8592    7.1531   12.3732 H           1 LGS       0.0660
     27 H5          4.3314    8.6708   11.6335 H           1 LGS       0.0660
     28 H6          0.3247    7.1459   14.2001 H           1 LGS       0.0647
     29 H7          1.3529    6.1341   15.8179 H           1 LGS       0.2100
     30 H8         -0.1196    4.7360   13.0823 H           1 LGS       0.0669
     31 H9          0.0608    7.1080   11.5727 H           1 LGS       0.2101
     32 H10         1.0620    4.6717   10.8357 H           1 LGS       0.0908
     33 H11         1.6421    3.3361   12.5949 H           1 LGS       0.2124
     34 H12         5.1324    5.5318    8.4049 H           1 LGS       0.0282
     35 H13         3.7424    4.9399    7.4699 H           1 LGS       0.0282
     36 H14         4.0310    2.6608    8.5628 H           1 LGS       0.0266
     37 H15         5.5477    3.2462    9.3128 H           1 LGS       0.0266
     38 H16         5.1938    3.4405    6.2638 H           1 LGS       0.0265
     39 H17         5.4451    1.8404    7.0064 H           1 LGS       0.0265
     40 H18         7.5986    2.4574    7.8942 H           1 LGS       0.0265
     41 H19         7.3811    4.1713    7.4424 H           1 LGS       0.0265
     42 H20         8.7089    2.0859    5.9966 H           1 LGS       0.0265
     43 H21         8.4850    3.7453    5.4862 H           1 LGS       0.0265
     44 H22         6.9556    3.2111    3.8652 H           1 LGS       0.0265
     45 H23         6.1339    1.9860    4.8593 H           1 LGS       0.0265
     46 H24         8.5879    0.7076    4.3508 H           1 LGS       0.0263
     47 H25         8.3020    1.6696    2.8219 H           1 LGS       0.0263
     48 H26         7.3623   -0.6168    2.6103 H           1 LGS       0.0230
     49 H27         6.0649    0.6066    2.5564 H           1 LGS       0.0230
     50 H28         6.3252   -0.3696    4.0391 H           1 LGS       0.0230
@<TRIPOS>BOND
     1     1     2   1
     2     2     3   1
     3     2     6   1
     4     3     4   1
     5     3    12   1
     6     4     5   1
     7     5    13   1
     8     6     7   1
     9     6     8   1
    10     8     9   1
    11     8    10   1
    12    10    11   1
    13    10    12   1
    14    12    13   1
    15    13    14   2
    16    14    15   1
    17    15    16   1
    18    16    17   1
    19    17    18   1
    20    18    19   1
    21    19    20   1
    22    20    21   1
    23    21    22   1
    24     1    23   1
    25     2    24   1
    26     3    25   1
    27     4    26   1
    28     4    27   1
    29     6    28   1
    30     7    29   1
    31     8    30   1
    32     9    31   1
    33    10    32   1
    34    11    33   1
    35    15    34   1
    36    15    35   1
    37    16    36   1
    38    16    37   1
    39    17    38   1
    40    17    39   1
    41    18    40   1
    42    18    41   1
    43    19    42   1
    44    19    43   1
    45    20    44   1
    46    20    45   1
    47    21    46   1
    48    21    47   1
    49    22    48   1
    50    22    49   1
    51    22    50   1
@<TRIPOS>SUBSTRUCTURE
     1  LGS      2

