@<TRIPOS>MOLECULE
2wbg_ligand_049
    50    51
SMALL
GAST_HUCK
****
This file was generated by PARSER (from files_GN.cpp)

@<TRIPOS>ATOM
      1 O4          2.0025    5.5060    3.1060 O.3         1 LGS      -0.3867
      2 C4          2.6457    4.6634    4.0607 C.3         1 LGS       0.1103
      3 C5          3.9722    5.3293    4.5290 C.3         1 LGS       0.1113
      4 C6          3.8298    6.6094    5.3807 C.3         1 LGS       0.1120
      5 O6          4.8041    6.5053    6.4243 O.3         1 LGS      -0.2547
      6 C3          2.8783    3.2246    3.4794 C.3         1 LGS       0.1137
      7 O3          1.8298    2.3599    3.9321 O.3         1 LGS      -0.3864
      8 C2          4.2790    2.6118    3.8293 C.3         1 LGS       0.1318
      9 O2          5.2659    3.0520    2.8903 O.3         1 LGS      -0.3843
     10 C1          4.7699    3.0422    5.2423 C.3         1 LGS       0.1770
     11 O1          4.0134    2.3698    6.2527 O.3         1 LGS      -0.3666
     12 N1          4.6636    4.4730    5.4230 N.pl3       1 LGS      -0.2126
     13 C7          5.1050    5.1754    6.4803 C.2         1 LGS       0.2439
     14 N2          5.7967    4.6188    7.4963 N.2         1 LGS      -0.3607
     15 C8          6.2875    5.2782    8.6611 C.3         1 LGS      -0.0300
     16 C9          5.6638    4.6367    9.9248 C.3         1 LGS      -0.0515
     17 C10         5.9988    5.3730   11.2619 C.3         1 LGS      -0.0530
     18 C11         4.8655    6.2801   11.8512 C.3         1 LGS      -0.0531
     19 C12         5.2725    7.7185   12.2624 C.3         1 LGS      -0.0531
     20 C13         5.8509    8.5946   11.1201 C.3         1 LGS      -0.0533
     21 C14         5.9246   10.1022   11.4816 C.3         1 LGS      -0.0559
     22 C15         6.7865   10.9257   10.4982 C.3         1 LGS      -0.0653
     23 H1          1.7283    6.3082    3.6023 H           1 LGS       0.2100
     24 H2          1.9783    4.5905    4.9279 H           1 LGS       0.0645
     25 H3          4.6127    5.5329    3.6645 H           1 LGS       0.0626
     26 H4          2.8359    6.6870    5.8318 H           1 LGS       0.0660
     27 H5          4.0136    7.5068    4.7838 H           1 LGS       0.0660
     28 H6          2.7817    3.2558    2.3903 H           1 LGS       0.0647
     29 H7          2.1918    1.4490    3.9013 H           1 LGS       0.2100
     30 H8          4.2441    1.5210    3.7641 H           1 LGS       0.0669
     31 H9          4.7810    3.2892    2.0731 H           1 LGS       0.2101
     32 H10         5.8147    2.7360    5.3608 H           1 LGS       0.0908
     33 H11         3.0939    2.6967    6.1598 H           1 LGS       0.2124
     34 H12         6.0639    6.3437    8.6306 H           1 LGS       0.0282
     35 H13         7.3750    5.1616    8.6912 H           1 LGS       0.0282
     36 H14         6.0365    3.6117    9.9843 H           1 LGS       0.0266
     37 H15         4.5820    4.5597    9.7947 H           1 LGS       0.0266
     38 H16         6.9275    5.9432   11.1588 H           1 LGS       0.0265
     39 H17         6.2162    4.5991   12.0042 H           1 LGS       0.0265
     40 H18         4.4732    5.7986   12.7508 H           1 LGS       0.0265
     41 H19         4.0199    6.3496   11.1644 H           1 LGS       0.0265
     42 H20         6.0013    7.6647   13.0764 H           1 LGS       0.0265
     43 H21         4.3809    8.2020   12.6665 H           1 LGS       0.0265
     44 H22         5.2281    8.4895   10.2286 H           1 LGS       0.0265
     45 H23         6.8520    8.2240   10.8842 H           1 LGS       0.0265
     46 H24         6.3372   10.2224   12.4848 H           1 LGS       0.0263
     47 H25         4.9090   10.5087   11.4782 H           1 LGS       0.0263
     48 H26         6.7031   11.9876   10.7444 H           1 LGS       0.0230
     49 H27         6.4521   10.7728    9.4690 H           1 LGS       0.0230
     50 H28         7.8371   10.6301   10.5838 H           1 LGS       0.0230
@<TRIPOS>BOND
     1     1     2   1
     2     2     3   1
     3     2     6   1
     4     3     4   1
     5     3    12   1
     6     4     5   1
     7     5    13   1
     8     6     7   1
     9     6     8   1
    10     8     9   1
    11     8    10   1
    12    10    11   1
    13    10    12   1
    14    12    13   1
    15    13    14   2
    16    14    15   1
    17    15    16   1
    18    16    17   1
    19    17    18   1
    20    18    19   1
    21    19    20   1
    22    20    21   1
    23    21    22   1
    24     1    23   1
    25     2    24   1
    26     3    25   1
    27     4    26   1
    28     4    27   1
    29     6    28   1
    30     7    29   1
    31     8    30   1
    32     9    31   1
    33    10    32   1
    34    11    33   1
    35    15    34   1
    36    15    35   1
    37    16    36   1
    38    16    37   1
    39    17    38   1
    40    17    39   1
    41    18    40   1
    42    18    41   1
    43    19    42   1
    44    19    43   1
    45    20    44   1
    46    20    45   1
    47    21    46   1
    48    21    47   1
    49    22    48   1
    50    22    49   1
    51    22    50   1
@<TRIPOS>SUBSTRUCTURE
     1  LGS      2

