@<TRIPOS>MOLECULE
2wbg_ligand_033
    50    51
SMALL
GAST_HUCK
****
This file was generated by PARSER (from files_GN.cpp)

@<TRIPOS>ATOM
      1 O4          7.3250   13.3271    8.5809 O.3         1 LGS      -0.3867
      2 C4          7.0500   12.0775    9.2205 C.3         1 LGS       0.1103
      3 C5          5.7662   11.4202    8.6332 C.3         1 LGS       0.1113
      4 C6          5.8633   11.0118    7.1533 C.3         1 LGS       0.1120
      5 O6          5.1245    9.7953    7.0488 O.3         1 LGS      -0.2547
      6 C3          6.9436   12.2569   10.7687 C.3         1 LGS       0.1137
      7 O3          8.2510   12.1209   11.3450 O.3         1 LGS      -0.3864
      8 C2          5.8996   11.3071   11.4522 C.3         1 LGS       0.1318
      9 O2          4.6583   12.0071   11.5834 O.3         1 LGS      -0.3843
     10 C1          5.6432    9.9745   10.6576 C.3         1 LGS       0.1770
     11 O1          6.7279    9.0699   10.8727 O.3         1 LGS      -0.3666
     12 N1          5.4642   10.1689    9.2464 N.pl3       1 LGS      -0.2126
     13 C7          5.1133    9.2692    8.2995 C.2         1 LGS       0.2439
     14 N2          4.7348    7.9730    8.3716 N.2         1 LGS      -0.3607
     15 C8          4.5005    6.9663    9.3542 C.3         1 LGS      -0.0300
     16 C9          3.0436    6.3704    9.2013 C.3         1 LGS      -0.0515
     17 C10         2.9635    4.8223    9.0502 C.3         1 LGS      -0.0530
     18 C11         3.0854    4.2551    7.5955 C.3         1 LGS      -0.0531
     19 C12         2.3075    5.0144    6.4724 C.3         1 LGS      -0.0531
     20 C13         3.1658    6.0410    5.6762 C.3         1 LGS      -0.0533
     21 C14         2.7230    6.2668    4.1973 C.3         1 LGS      -0.0559
     22 C15         3.2604    5.1972    3.2002 C.3         1 LGS      -0.0653
     23 H1          6.5408   13.8977    8.7575 H           1 LGS       0.2100
     24 H2          7.9002   11.4188    9.0050 H           1 LGS       0.0645
     25 H3          4.9193   12.1034    8.7593 H           1 LGS       0.0626
     26 H4          6.8934   10.8136    6.8457 H           1 LGS       0.0660
     27 H5          5.4396   11.7621    6.4845 H           1 LGS       0.0660
     28 H6          6.6570   13.2883   10.9867 H           1 LGS       0.0647
     29 H7          8.3352   11.1748   11.6131 H           1 LGS       0.2100
     30 H8          6.2334   11.0696   12.4726 H           1 LGS       0.0669
     31 H9          4.0024   11.3069   11.8282 H           1 LGS       0.2101
     32 H10         4.7433    9.5157   11.0642 H           1 LGS       0.0908
     33 H11         7.5110    9.4878   10.4625 H           1 LGS       0.2124
     34 H12         4.6066    7.3805   10.3694 H           1 LGS       0.0282
     35 H13         5.2552    6.1728    9.2160 H           1 LGS       0.0282
     36 H14         2.5024    6.7914    8.3305 H           1 LGS       0.0266
     37 H15         2.4658    6.6122   10.1254 H           1 LGS       0.0266
     38 H16         1.9979    4.4909    9.4642 H           1 LGS       0.0265
     39 H17         3.7627    4.3665    9.6699 H           1 LGS       0.0265
     40 H18         2.6779    3.2371    7.6458 H           1 LGS       0.0265
     41 H19         4.1507    4.1546    7.3485 H           1 LGS       0.0265
     42 H20         1.4478    5.5393    6.8985 H           1 LGS       0.0265
     43 H21         1.9303    4.2578    5.7631 H           1 LGS       0.0265
     44 H22         4.2180    5.7219    5.6701 H           1 LGS       0.0265
     45 H23         3.1111    6.9975    6.1934 H           1 LGS       0.0265
     46 H24         3.1096    7.2471    3.8781 H           1 LGS       0.0263
     47 H25         1.6314    6.3051    4.1294 H           1 LGS       0.0263
     48 H26         2.9958    5.4746    2.1719 H           1 LGS       0.0230
     49 H27         2.8244    4.2152    3.4158 H           1 LGS       0.0230
     50 H28         4.3561    5.1347    3.2725 H           1 LGS       0.0230
@<TRIPOS>BOND
     1     1     2   1
     2     2     3   1
     3     2     6   1
     4     3     4   1
     5     3    12   1
     6     4     5   1
     7     5    13   1
     8     6     7   1
     9     6     8   1
    10     8     9   1
    11     8    10   1
    12    10    11   1
    13    10    12   1
    14    12    13   1
    15    13    14   2
    16    14    15   1
    17    15    16   1
    18    16    17   1
    19    17    18   1
    20    18    19   1
    21    19    20   1
    22    20    21   1
    23    21    22   1
    24     1    23   1
    25     2    24   1
    26     3    25   1
    27     4    26   1
    28     4    27   1
    29     6    28   1
    30     7    29   1
    31     8    30   1
    32     9    31   1
    33    10    32   1
    34    11    33   1
    35    15    34   1
    36    15    35   1
    37    16    36   1
    38    16    37   1
    39    17    38   1
    40    17    39   1
    41    18    40   1
    42    18    41   1
    43    19    42   1
    44    19    43   1
    45    20    44   1
    46    20    45   1
    47    21    46   1
    48    21    47   1
    49    22    48   1
    50    22    49   1
    51    22    50   1
@<TRIPOS>SUBSTRUCTURE
     1  LGS      2

