@<TRIPOS>MOLECULE
2wbg_ligand_014
    50    51
SMALL
GAST_HUCK
****
This file was generated by PARSER (from files_GN.cpp)

@<TRIPOS>ATOM
      1 O4          1.8228    2.1809    3.9887 O.3         1 LGS      -0.3867
      2 C4          2.7678    3.1889    4.3422 C.3         1 LGS       0.1103
      3 C5          2.8019    3.3834    5.8883 C.3         1 LGS       0.1113
      4 C6          3.4883    2.2541    6.6901 C.3         1 LGS       0.1120
      5 O6          4.4614    2.8728    7.5391 O.3         1 LGS      -0.2547
      6 C3          2.3793    4.5172    3.6409 C.3         1 LGS       0.1137
      7 O3          2.4404    4.3402    2.2284 O.3         1 LGS      -0.3864
      8 C2          3.2994    5.6846    4.0959 C.3         1 LGS       0.1318
      9 O2          2.8591    6.9117    3.5141 O.3         1 LGS      -0.3843
     10 C1          3.3081    5.8103    5.6459 C.3         1 LGS       0.1770
     11 O1          4.2013    6.8589    6.0256 O.3         1 LGS      -0.3666
     12 N1          3.5841    4.5168    6.2342 N.pl3       1 LGS      -0.2126
     13 C7          4.5157    4.1740    7.1457 C.2         1 LGS       0.2439
     14 N2          5.3841    5.0440    7.7015 N.2         1 LGS      -0.3607
     15 C8          6.3346    4.8157    8.7356 C.3         1 LGS      -0.0300
     16 C9          5.6889    4.3920   10.0817 C.3         1 LGS      -0.0515
     17 C10         4.4819    5.2774   10.5459 C.3         1 LGS      -0.0530
     18 C11         3.2516    4.4556   11.0240 C.3         1 LGS      -0.0531
     19 C12         1.9098    5.2361   11.0900 C.3         1 LGS      -0.0531
     20 C13         1.8492    6.3411   12.1836 C.3         1 LGS      -0.0533
     21 C14         0.4179    6.8444   12.5248 C.3         1 LGS      -0.0559
     22 C15        -0.2408    7.7067   11.4228 C.3         1 LGS      -0.0653
     23 H1          2.3166    1.3383    4.0195 H           1 LGS       0.2100
     24 H2          3.7563    2.8796    3.9864 H           1 LGS       0.0645
     25 H3          1.7854    3.5345    6.2652 H           1 LGS       0.0626
     26 H4          3.9961    1.5389    6.0374 H           1 LGS       0.0660
     27 H5          2.7586    1.7114    7.2990 H           1 LGS       0.0660
     28 H6          1.3445    4.7611    3.8979 H           1 LGS       0.0647
     29 H7          3.3765    4.1665    2.0091 H           1 LGS       0.2100
     30 H8          4.3192    5.4887    3.7489 H           1 LGS       0.0669
     31 H9          2.9426    6.7871    2.5478 H           1 LGS       0.2101
     32 H10         2.3140    6.1237    5.9756 H           1 LGS       0.0908
     33 H11         5.0973    6.5300    5.8010 H           1 LGS       0.2124
     34 H12         6.8833    5.7460    8.8875 H           1 LGS       0.0282
     35 H13         7.0487    4.0594    8.4033 H           1 LGS       0.0282
     36 H14         6.4646    4.4165   10.8536 H           1 LGS       0.0266
     37 H15         5.3878    3.3448    9.9940 H           1 LGS       0.0266
     38 H16         4.1463    5.9448    9.7482 H           1 LGS       0.0265
     39 H17         4.8086    5.9197   11.3676 H           1 LGS       0.0265
     40 H18         3.4702    4.0420   12.0123 H           1 LGS       0.0265
     41 H19         3.0951    3.6139   10.3452 H           1 LGS       0.0265
     42 H20         1.1190    4.5057   11.2854 H           1 LGS       0.0265
     43 H21         1.7024    5.6888   10.1144 H           1 LGS       0.0265
     44 H22         2.4603    7.1942   11.8728 H           1 LGS       0.0265
     45 H23         2.2857    5.9417   13.1029 H           1 LGS       0.0265
     46 H24         0.4719    7.4494   13.4360 H           1 LGS       0.0263
     47 H25        -0.2304    5.9892   12.7401 H           1 LGS       0.0263
     48 H26        -1.2200    8.0530   11.7619 H           1 LGS       0.0230
     49 H27        -0.3786    7.1248   10.5096 H           1 LGS       0.0230
     50 H28         0.3785    8.5789   11.2027 H           1 LGS       0.0230
@<TRIPOS>BOND
     1     1     2   1
     2     2     3   1
     3     2     6   1
     4     3     4   1
     5     3    12   1
     6     4     5   1
     7     5    13   1
     8     6     7   1
     9     6     8   1
    10     8     9   1
    11     8    10   1
    12    10    11   1
    13    10    12   1
    14    12    13   1
    15    13    14   2
    16    14    15   1
    17    15    16   1
    18    16    17   1
    19    17    18   1
    20    18    19   1
    21    19    20   1
    22    20    21   1
    23    21    22   1
    24     1    23   1
    25     2    24   1
    26     3    25   1
    27     4    26   1
    28     4    27   1
    29     6    28   1
    30     7    29   1
    31     8    30   1
    32     9    31   1
    33    10    32   1
    34    11    33   1
    35    15    34   1
    36    15    35   1
    37    16    36   1
    38    16    37   1
    39    17    38   1
    40    17    39   1
    41    18    40   1
    42    18    41   1
    43    19    42   1
    44    19    43   1
    45    20    44   1
    46    20    45   1
    47    21    46   1
    48    21    47   1
    49    22    48   1
    50    22    49   1
    51    22    50   1
@<TRIPOS>SUBSTRUCTURE
     1  LGS      2

