@<TRIPOS>MOLECULE
2wbg_ligand_044
    50    51
SMALL
GAST_HUCK
****
This file was generated by PARSER (from files_GN.cpp)

@<TRIPOS>ATOM
      1 O4         -0.6478    8.2895   12.4516 O.3         1 LGS      -0.3867
      2 C4          0.6113    7.6210   12.3414 C.3         1 LGS       0.1103
      3 C5          0.5109    6.4308   11.3521 C.3         1 LGS       0.1113
      4 C6          0.2675    6.8570    9.8895 C.3         1 LGS       0.1120
      5 O6          1.0976    6.0200    9.0902 O.3         1 LGS      -0.2547
      6 C3          1.1039    7.1702   13.7466 C.3         1 LGS       0.1137
      7 O3          1.8502    8.2315   14.3378 O.3         1 LGS      -0.3864
      8 C2          1.9414    5.8515   13.7666 C.3         1 LGS       0.1318
      9 O2          1.1288    4.7773   14.2316 O.3         1 LGS      -0.3843
     10 C1          2.6011    5.4814   12.3888 C.3         1 LGS       0.1770
     11 O1          3.8094    6.2299   12.2403 O.3         1 LGS      -0.3666
     12 N1          1.7534    5.7359   11.2444 N.pl3       1 LGS      -0.2126
     13 C7          2.0546    5.5628    9.9364 C.2         1 LGS       0.2439
     14 N2          3.0934    4.9716    9.3199 N.2         1 LGS      -0.3607
     15 C8          4.2322    4.2126    9.7000 C.3         1 LGS      -0.0300
     16 C9          4.3885    3.0523    8.6818 C.3         1 LGS      -0.0515
     17 C10         3.0446    2.3128    8.4026 C.3         1 LGS      -0.0530
     18 C11         2.9508    1.6004    7.0305 C.3         1 LGS      -0.0531
     19 C12         2.7687    2.5357    5.7907 C.3         1 LGS      -0.0531
     20 C13         3.8790    2.3941    4.7115 C.3         1 LGS      -0.0533
     21 C14         3.3652    2.5268    3.2477 C.3         1 LGS      -0.0559
     22 C15         2.8046    3.9176    2.8874 C.3         1 LGS      -0.0653
     23 H1         -0.9179    8.4705   11.5145 H           1 LGS       0.2100
     24 H2          1.3373    8.3167   11.9162 H           1 LGS       0.0645
     25 H3         -0.2596    5.7290   11.6803 H           1 LGS       0.0626
     26 H4          0.5656    7.8929    9.7079 H           1 LGS       0.0660
     27 H5         -0.7751    6.7433    9.5995 H           1 LGS       0.0660
     28 H6          0.2397    7.0357   14.3976 H           1 LGS       0.0647
     29 H7          2.4358    8.5655   13.6180 H           1 LGS       0.2100
     30 H8          2.7316    5.9456   14.5176 H           1 LGS       0.0669
     31 H9          0.9883    4.1820   13.4618 H           1 LGS       0.2101
     32 H10         2.8487    4.4205   12.4140 H           1 LGS       0.0908
     33 H11         4.4097    5.8783   12.9275 H           1 LGS       0.2124
     34 H12         4.1391    3.8050   10.7129 H           1 LGS       0.0282
     35 H13         5.1234    4.8537    9.6426 H           1 LGS       0.0282
     36 H14         5.1179    2.3254    9.0703 H           1 LGS       0.0266
     37 H15         4.7906    3.4644    7.7457 H           1 LGS       0.0266
     38 H16         2.2114    3.0204    8.4799 H           1 LGS       0.0265
     39 H17         2.9018    1.5577    9.1900 H           1 LGS       0.0265
     40 H18         2.0760    0.9418    7.0876 H           1 LGS       0.0265
     41 H19         3.8311    0.9633    6.9087 H           1 LGS       0.0265
     42 H20         2.6924    3.5779    6.1043 H           1 LGS       0.0265
     43 H21         1.8111    2.2810    5.3231 H           1 LGS       0.0265
     44 H22         4.3379    1.4032    4.7965 H           1 LGS       0.0265
     45 H23         4.6681    3.1284    4.8837 H           1 LGS       0.0265
     46 H24         2.5945    1.7790    3.0580 H           1 LGS       0.0263
     47 H25         4.2022    2.3071    2.5700 H           1 LGS       0.0263
     48 H26         2.4918    3.9164    1.8404 H           1 LGS       0.0230
     49 H27         3.5702    4.6875    3.0169 H           1 LGS       0.0230
     50 H28         1.9397    4.1622    3.5012 H           1 LGS       0.0230
@<TRIPOS>BOND
     1     1     2   1
     2     2     3   1
     3     2     6   1
     4     3     4   1
     5     3    12   1
     6     4     5   1
     7     5    13   1
     8     6     7   1
     9     6     8   1
    10     8     9   1
    11     8    10   1
    12    10    11   1
    13    10    12   1
    14    12    13   1
    15    13    14   2
    16    14    15   1
    17    15    16   1
    18    16    17   1
    19    17    18   1
    20    18    19   1
    21    19    20   1
    22    20    21   1
    23    21    22   1
    24     1    23   1
    25     2    24   1
    26     3    25   1
    27     4    26   1
    28     4    27   1
    29     6    28   1
    30     7    29   1
    31     8    30   1
    32     9    31   1
    33    10    32   1
    34    11    33   1
    35    15    34   1
    36    15    35   1
    37    16    36   1
    38    16    37   1
    39    17    38   1
    40    17    39   1
    41    18    40   1
    42    18    41   1
    43    19    42   1
    44    19    43   1
    45    20    44   1
    46    20    45   1
    47    21    46   1
    48    21    47   1
    49    22    48   1
    50    22    49   1
    51    22    50   1
@<TRIPOS>SUBSTRUCTURE
     1  LGS      2

