@<TRIPOS>MOLECULE
2wbg_ligand_027
    50    51
SMALL
GAST_HUCK
****
This file was generated by PARSER (from files_GN.cpp)

@<TRIPOS>ATOM
      1 O4          3.7381    5.5207   14.4817 O.3         1 LGS      -0.3867
      2 C4          3.7347    5.1432   13.1036 C.3         1 LGS       0.1103
      3 C5          3.6316    6.3880   12.1725 C.3         1 LGS       0.1113
      4 C6          4.8025    7.3903   12.2579 C.3         1 LGS       0.1120
      5 O6          5.0893    7.7755   10.9141 O.3         1 LGS      -0.2547
      6 C3          2.5778    4.1424   12.8091 C.3         1 LGS       0.1137
      7 O3          3.0020    2.8413   13.2047 O.3         1 LGS      -0.3864
      8 C2          2.0791    4.1461   11.3185 C.3         1 LGS       0.1318
      9 O2          0.8407    4.8616   11.2331 O.3         1 LGS      -0.3843
     10 C1          3.0753    4.7901   10.3009 C.3         1 LGS       0.1770
     11 O1          4.0633    3.8340    9.9231 O.3         1 LGS      -0.3666
     12 N1          3.7235    5.9723   10.8186 N.pl3       1 LGS      -0.2126
     13 C7          4.5965    6.7549   10.1568 C.2         1 LGS       0.2439
     14 N2          5.0031    6.5549    8.8807 N.2         1 LGS      -0.3607
     15 C8          5.9673    7.3595    8.2160 C.3         1 LGS      -0.0300
     16 C9          6.3581    6.7906    6.8290 C.3         1 LGS      -0.0515
     17 C10         5.3766    7.1059    5.6669 C.3         1 LGS      -0.0530
     18 C11         3.9742    6.4456    5.7987 C.3         1 LGS      -0.0531
     19 C12         3.1642    6.4211    4.4724 C.3         1 LGS      -0.0531
     20 C13         3.4797    5.2217    3.5280 C.3         1 LGS      -0.0533
     21 C14         2.7591    3.9003    3.9229 C.3         1 LGS      -0.0559
     22 C15         3.0358    2.7482    2.9291 C.3         1 LGS      -0.0653
     23 H1          3.8957    4.7035   14.9892 H           1 LGS       0.2100
     24 H2          4.6918    4.6489   12.8952 H           1 LGS       0.0645
     25 H3          2.6850    6.9105   12.3458 H           1 LGS       0.0626
     26 H4          5.7012    6.9374   12.6849 H           1 LGS       0.0660
     27 H5          4.5386    8.2709   12.8407 H           1 LGS       0.0660
     28 H6          1.7369    4.3997   13.4537 H           1 LGS       0.0647
     29 H7          2.1740    2.3749   13.4453 H           1 LGS       0.2100
     30 H8          1.8492    3.1242   11.0021 H           1 LGS       0.0669
     31 H9          1.0298    5.7639   11.5847 H           1 LGS       0.2101
     32 H10         2.5304    5.0563    9.3931 H           1 LGS       0.0908
     33 H11         4.4718    3.5272   10.7660 H           1 LGS       0.2124
     34 H12         6.8745    7.3917    8.8264 H           1 LGS       0.0282
     35 H13         5.5963    8.3847    8.1031 H           1 LGS       0.0282
     36 H14         6.4906    5.7089    6.9040 H           1 LGS       0.0266
     37 H15         7.3231    7.2180    6.5424 H           1 LGS       0.0266
     38 H16         5.8471    6.7706    4.7341 H           1 LGS       0.0265
     39 H17         5.2451    8.1904    5.5829 H           1 LGS       0.0265
     40 H18         3.3969    7.0103    6.5332 H           1 LGS       0.0265
     41 H19         4.0809    5.4281    6.1839 H           1 LGS       0.0265
     42 H20         3.3478    7.3422    3.9263 H           1 LGS       0.0265
     43 H21         2.0987    6.3935    4.7112 H           1 LGS       0.0265
     44 H22         4.5611    5.0427    3.4997 H           1 LGS       0.0265
     45 H23         3.1679    5.4888    2.5120 H           1 LGS       0.0265
     46 H24         1.6833    4.0752    3.9621 H           1 LGS       0.0263
     47 H25         3.0932    3.5782    4.9103 H           1 LGS       0.0263
     48 H26         2.4609    1.8647    3.2177 H           1 LGS       0.0230
     49 H27         4.1011    2.4913    2.9356 H           1 LGS       0.0230
     50 H28         2.7389    3.0377    1.9200 H           1 LGS       0.0230
@<TRIPOS>BOND
     1     1     2   1
     2     2     3   1
     3     2     6   1
     4     3     4   1
     5     3    12   1
     6     4     5   1
     7     5    13   1
     8     6     7   1
     9     6     8   1
    10     8     9   1
    11     8    10   1
    12    10    11   1
    13    10    12   1
    14    12    13   1
    15    13    14   2
    16    14    15   1
    17    15    16   1
    18    16    17   1
    19    17    18   1
    20    18    19   1
    21    19    20   1
    22    20    21   1
    23    21    22   1
    24     1    23   1
    25     2    24   1
    26     3    25   1
    27     4    26   1
    28     4    27   1
    29     6    28   1
    30     7    29   1
    31     8    30   1
    32     9    31   1
    33    10    32   1
    34    11    33   1
    35    15    34   1
    36    15    35   1
    37    16    36   1
    38    16    37   1
    39    17    38   1
    40    17    39   1
    41    18    40   1
    42    18    41   1
    43    19    42   1
    44    19    43   1
    45    20    44   1
    46    20    45   1
    47    21    46   1
    48    21    47   1
    49    22    48   1
    50    22    49   1
    51    22    50   1
@<TRIPOS>SUBSTRUCTURE
     1  LGS      2

