@<TRIPOS>MOLECULE
2wbg_ligand_012
    50    51
SMALL
GAST_HUCK
****
This file was generated by PARSER (from files_GN.cpp)

@<TRIPOS>ATOM
      1 O4         -0.4188    5.9256   12.4654 O.3         1 LGS      -0.3867
      2 C4          0.9843    6.1171   12.6228 C.3         1 LGS       0.1103
      3 C5          1.7455    5.4867   11.4224 C.3         1 LGS       0.1113
      4 C6          1.5649    6.1970   10.0597 C.3         1 LGS       0.1120
      5 O6          2.8598    6.2589    9.4527 O.3         1 LGS      -0.2547
      6 C3          1.4655    5.5592   14.0073 C.3         1 LGS       0.1137
      7 O3          1.4623    6.6462   14.9385 O.3         1 LGS      -0.3864
      8 C2          2.8657    4.8513   13.9798 C.3         1 LGS       0.1318
      9 O2          2.7398    3.4374   13.7937 O.3         1 LGS      -0.3843
     10 C1          3.8090    5.4243   12.8815 C.3         1 LGS       0.1770
     11 O1          4.3175    6.6759   13.3460 O.3         1 LGS      -0.3666
     12 N1          3.1467    5.6069   11.6121 N.pl3       1 LGS      -0.2126
     13 C7          3.7236    6.0656   10.4850 C.2         1 LGS       0.2439
     14 N2          5.0372    6.3575   10.4026 N.2         1 LGS      -0.3607
     15 C8          5.7266    6.9599    9.3141 C.3         1 LGS      -0.0300
     16 C9          7.2142    7.1938    9.6869 C.3         1 LGS      -0.0515
     17 C10         8.2134    6.0986    9.1887 C.3         1 LGS      -0.0530
     18 C11         8.8308    6.3451    7.7835 C.3         1 LGS      -0.0531
     19 C12         9.6235    7.6824    7.6695 C.3         1 LGS      -0.0531
     20 C13        10.7716    7.6691    6.6272 C.3         1 LGS      -0.0533
     21 C14        11.5024    9.0303    6.4798 C.3         1 LGS      -0.0559
     22 C15        12.1340    9.5812    7.7860 C.3         1 LGS      -0.0653
     23 H1         -0.5357    4.9526   12.4754 H           1 LGS       0.2100
     24 H2          1.1571    7.1984   12.5966 H           1 LGS       0.0645
     25 H3          1.4828    4.4280   11.3274 H           1 LGS       0.0626
     26 H4          1.1903    7.2176   10.1776 H           1 LGS       0.0660
     27 H5          0.8773    5.6504    9.4115 H           1 LGS       0.0660
     28 H6          0.7313    4.8375   14.3799 H           1 LGS       0.0647
     29 H7          1.5220    6.2515   15.8319 H           1 LGS       0.2100
     30 H8          3.3540    4.9615   14.9517 H           1 LGS       0.0669
     31 H9          1.9350    3.2998   13.2494 H           1 LGS       0.2101
     32 H10         4.6553    4.7432   12.7524 H           1 LGS       0.0908
     33 H11         5.0467    6.9124   12.7352 H           1 LGS       0.2124
     34 H12         5.2506    7.9269    9.1163 H           1 LGS       0.0282
     35 H13         5.6307    6.3440    8.4163 H           1 LGS       0.0282
     36 H14         7.3116    7.2734   10.7757 H           1 LGS       0.0266
     37 H15         7.5141    8.1679    9.2970 H           1 LGS       0.0266
     38 H16         7.7196    5.1235    9.1857 H           1 LGS       0.0265
     39 H17         9.0398    6.0323    9.8987 H           1 LGS       0.0265
     40 H18         8.0440    6.3305    7.0257 H           1 LGS       0.0265
     41 H19         9.5090    5.5112    7.5721 H           1 LGS       0.0265
     42 H20        10.0549    7.9245    8.6457 H           1 LGS       0.0265
     43 H21         8.9308    8.4875    7.4003 H           1 LGS       0.0265
     44 H22        10.3556    7.3969    5.6524 H           1 LGS       0.0265
     45 H23        11.5000    6.9020    6.9025 H           1 LGS       0.0265
     46 H24        10.8013    9.7748    6.0921 H           1 LGS       0.0263
     47 H25        12.2967    8.9104    5.7382 H           1 LGS       0.0263
     48 H26        12.7910   10.4209    7.5541 H           1 LGS       0.0230
     49 H27        12.7182    8.8068    8.2864 H           1 LGS       0.0230
     50 H28        11.3607    9.9388    8.4682 H           1 LGS       0.0230
@<TRIPOS>BOND
     1     1     2   1
     2     2     3   1
     3     2     6   1
     4     3     4   1
     5     3    12   1
     6     4     5   1
     7     5    13   1
     8     6     7   1
     9     6     8   1
    10     8     9   1
    11     8    10   1
    12    10    11   1
    13    10    12   1
    14    12    13   1
    15    13    14   2
    16    14    15   1
    17    15    16   1
    18    16    17   1
    19    17    18   1
    20    18    19   1
    21    19    20   1
    22    20    21   1
    23    21    22   1
    24     1    23   1
    25     2    24   1
    26     3    25   1
    27     4    26   1
    28     4    27   1
    29     6    28   1
    30     7    29   1
    31     8    30   1
    32     9    31   1
    33    10    32   1
    34    11    33   1
    35    15    34   1
    36    15    35   1
    37    16    36   1
    38    16    37   1
    39    17    38   1
    40    17    39   1
    41    18    40   1
    42    18    41   1
    43    19    42   1
    44    19    43   1
    45    20    44   1
    46    20    45   1
    47    21    46   1
    48    21    47   1
    49    22    48   1
    50    22    49   1
    51    22    50   1
@<TRIPOS>SUBSTRUCTURE
     1  LGS      2

