@<TRIPOS>MOLECULE
2wbg_ligand_005
    50    51
SMALL
GAST_HUCK
****
This file was generated by PARSER (from files_GN.cpp)

@<TRIPOS>ATOM
      1 O4          0.7674    6.9610   13.8824 O.3         1 LGS      -0.3867
      2 C4          1.8626    6.3616   13.1852 C.3         1 LGS       0.1103
      3 C5          1.4754    6.0479   11.7138 C.3         1 LGS       0.1113
      4 C6          1.0606    7.2458   10.8329 C.3         1 LGS       0.1120
      5 O6          1.7064    7.0643    9.5689 O.3         1 LGS      -0.2547
      6 C3          2.3302    5.0518   13.8929 C.3         1 LGS       0.1137
      7 O3          3.1321    5.4025   15.0237 O.3         1 LGS      -0.3864
      8 C2          3.1055    4.0485   12.9611 C.3         1 LGS       0.1318
      9 O2          2.2979    2.9052   12.6762 O.3         1 LGS      -0.3843
     10 C1          3.5637    4.6420   11.5888 C.3         1 LGS       0.1770
     11 O1          4.8281    5.2845   11.7605 O.3         1 LGS      -0.3666
     12 N1          2.6182    5.5770   11.0258 N.pl3       1 LGS      -0.2126
     13 C7          2.7244    6.1997    9.8356 C.2         1 LGS       0.2439
     14 N2          3.7328    5.9839    8.9670 N.2         1 LGS      -0.3607
     15 C8          3.8951    6.5976    7.6928 C.3         1 LGS      -0.0300
     16 C9          5.2173    6.1114    7.0219 C.3         1 LGS      -0.0515
     17 C10         5.0764    5.5882    5.5626 C.3         1 LGS      -0.0530
     18 C11         4.1463    4.3596    5.3448 C.3         1 LGS      -0.0531
     19 C12         4.4072    3.1611    6.3088 C.3         1 LGS      -0.0531
     20 C13         3.6932    1.8466    5.8836 C.3         1 LGS      -0.0533
     21 C14         2.2249    1.6685    6.3831 C.3         1 LGS      -0.0559
     22 C15         2.0938    1.3580    7.8965 C.3         1 LGS      -0.0653
     23 H1          0.7752    7.9109   13.6273 H           1 LGS       0.2100
     24 H2          2.6890    7.0825   13.1886 H           1 LGS       0.0645
     25 H3          0.6969    5.2778   11.6856 H           1 LGS       0.0626
     26 H4          1.3903    8.1949   11.2662 H           1 LGS       0.0660
     27 H5         -0.0239    7.2798   10.6982 H           1 LGS       0.0660
     28 H6          1.4389    4.5511   14.2884 H           1 LGS       0.0647
     29 H7          3.0969    4.6300   15.6285 H           1 LGS       0.2100
     30 H8          3.9825    3.6667   13.4904 H           1 LGS       0.0669
     31 H9          1.9729    2.5864   13.5448 H           1 LGS       0.2101
     32 H10         3.7099    3.8249   10.8740 H           1 LGS       0.0908
     33 H11         5.4421    4.5342   11.9134 H           1 LGS       0.2124
     34 H12         3.9327    7.6840    7.8205 H           1 LGS       0.0282
     35 H13         3.0201    6.3683    7.0801 H           1 LGS       0.0282
     36 H14         5.6938    5.3235    7.6196 H           1 LGS       0.0266
     37 H15         5.9195    6.9549    7.0002 H           1 LGS       0.0266
     38 H16         6.0766    5.3255    5.2004 H           1 LGS       0.0265
     39 H17         4.7128    6.4109    4.9357 H           1 LGS       0.0265
     40 H18         4.2991    4.0162    4.3136 H           1 LGS       0.0265
     41 H19         3.1012    4.6697    5.4266 H           1 LGS       0.0265
     42 H20         4.0970    3.4344    7.3247 H           1 LGS       0.0265
     43 H21         5.4892    2.9715    6.3293 H           1 LGS       0.0265
     44 H22         4.2896    1.0087    6.2545 H           1 LGS       0.0265
     45 H23         3.6967    1.7821    4.7881 H           1 LGS       0.0265
     46 H24         1.7861    0.8307    5.8309 H           1 LGS       0.0263
     47 H25         1.6405    2.5638    6.1384 H           1 LGS       0.0263
     48 H26         1.0595    1.0566    8.1133 H           1 LGS       0.0230
     49 H27         2.3384    2.2481    8.4895 H           1 LGS       0.0230
     50 H28         2.7647    0.5344    8.1736 H           1 LGS       0.0230
@<TRIPOS>BOND
     1     1     2   1
     2     2     3   1
     3     2     6   1
     4     3     4   1
     5     3    12   1
     6     4     5   1
     7     5    13   1
     8     6     7   1
     9     6     8   1
    10     8     9   1
    11     8    10   1
    12    10    11   1
    13    10    12   1
    14    12    13   1
    15    13    14   2
    16    14    15   1
    17    15    16   1
    18    16    17   1
    19    17    18   1
    20    18    19   1
    21    19    20   1
    22    20    21   1
    23    21    22   1
    24     1    23   1
    25     2    24   1
    26     3    25   1
    27     4    26   1
    28     4    27   1
    29     6    28   1
    30     7    29   1
    31     8    30   1
    32     9    31   1
    33    10    32   1
    34    11    33   1
    35    15    34   1
    36    15    35   1
    37    16    36   1
    38    16    37   1
    39    17    38   1
    40    17    39   1
    41    18    40   1
    42    18    41   1
    43    19    42   1
    44    19    43   1
    45    20    44   1
    46    20    45   1
    47    21    46   1
    48    21    47   1
    49    22    48   1
    50    22    49   1
    51    22    50   1
@<TRIPOS>SUBSTRUCTURE
     1  LGS      2

