@<TRIPOS>MOLECULE
2wbg_ligand_062
    50    51
SMALL
GAST_HUCK
****
This file was generated by PARSER (from files_GN.cpp)

@<TRIPOS>ATOM
      1 O4          2.9629    4.4104    6.7773 O.3         1 LGS      -0.3867
      2 C4          3.0511    5.4798    7.7210 C.3         1 LGS       0.1103
      3 C5          4.4608    6.1371    7.6614 C.3         1 LGS       0.1113
      4 C6          4.8176    6.9261    6.3820 C.3         1 LGS       0.1120
      5 O6          5.5110    8.1080    6.8090 O.3         1 LGS      -0.2547
      6 C3          2.6898    4.9848    9.1659 C.3         1 LGS       0.1137
      7 O3          1.3100    5.2407    9.4388 O.3         1 LGS      -0.3864
      8 C2          3.5777    5.5813   10.3063 C.3         1 LGS       0.1318
      9 O2          4.7293    4.7644   10.5079 O.3         1 LGS      -0.3843
     10 C1          4.0896    7.0176    9.9939 C.3         1 LGS       0.1770
     11 O1          3.0364    7.9631   10.1721 O.3         1 LGS      -0.3666
     12 N1          4.5826    7.1472    8.6450 N.pl3       1 LGS      -0.2126
     13 C7          5.1977    8.2275    8.1267 C.2         1 LGS       0.2439
     14 N2          5.5691    9.2784    8.8916 N.2         1 LGS      -0.3607
     15 C8          6.2665   10.4655    8.5310 C.3         1 LGS      -0.0300
     16 C9          6.7373   11.1557    9.8353 C.3         1 LGS      -0.0515
     17 C10         7.9042   12.1703    9.6884 C.3         1 LGS      -0.0530
     18 C11         7.4630   13.6015    9.2698 C.3         1 LGS      -0.0531
     19 C12         8.6248   14.6353    9.2180 C.3         1 LGS      -0.0531
     20 C13         9.5587   14.4950    7.9851 C.3         1 LGS      -0.0533
     21 C14        10.6461   15.5993    7.8756 C.3         1 LGS      -0.0559
     22 C15        11.8249   15.4349    8.8632 C.3         1 LGS      -0.0653
     23 H1          3.6600    3.7703    7.0475 H           1 LGS       0.2100
     24 H2          2.3193    6.2273    7.4123 H           1 LGS       0.0645
     25 H3          5.2247    5.3743    7.8464 H           1 LGS       0.0626
     26 H4          3.9217    7.2211    5.8290 H           1 LGS       0.0660
     27 H5          5.4602    6.3374    5.7237 H           1 LGS       0.0660
     28 H6          2.7966    3.8982    9.2018 H           1 LGS       0.0647
     29 H7          1.1998    6.2133    9.3735 H           1 LGS       0.2100
     30 H8          3.0263    5.5926   11.2497 H           1 LGS       0.0669
     31 H9          4.4040    3.9624   10.9721 H           1 LGS       0.2101
     32 H10         4.8958    7.2697   10.6922 H           1 LGS       0.0908
     33 H11         3.2300    8.4190   11.0181 H           1 LGS       0.2124
     34 H12         5.6086   11.1198    7.9583 H           1 LGS       0.0282
     35 H13         7.1397   10.2120    7.9263 H           1 LGS       0.0282
     36 H14         7.0694   10.3655   10.5157 H           1 LGS       0.0266
     37 H15         5.8933   11.6580   10.3101 H           1 LGS       0.0266
     38 H16         8.6335   11.7819    8.9768 H           1 LGS       0.0265
     39 H17         8.3996   12.2412   10.6617 H           1 LGS       0.0265
     40 H18         6.7336   13.9696    9.9984 H           1 LGS       0.0265
     41 H19         6.9641   13.5636    8.2971 H           1 LGS       0.0265
     42 H20         9.2095   14.5459   10.1358 H           1 LGS       0.0265
     43 H21         8.1869   15.6398    9.2056 H           1 LGS       0.0265
     44 H22         8.9371   14.5390    7.0863 H           1 LGS       0.0265
     45 H23        10.0499   13.5215    8.0001 H           1 LGS       0.0265
     46 H24        10.1919   16.5824    8.0193 H           1 LGS       0.0263
     47 H25        11.0552   15.5724    6.8627 H           1 LGS       0.0263
     48 H26        12.5900   16.1847    8.6512 H           1 LGS       0.0230
     49 H27        12.2757   14.4460    8.7606 H           1 LGS       0.0230
     50 H28        11.4905   15.5695    9.8932 H           1 LGS       0.0230
@<TRIPOS>BOND
     1     1     2   1
     2     2     3   1
     3     2     6   1
     4     3     4   1
     5     3    12   1
     6     4     5   1
     7     5    13   1
     8     6     7   1
     9     6     8   1
    10     8     9   1
    11     8    10   1
    12    10    11   1
    13    10    12   1
    14    12    13   1
    15    13    14   2
    16    14    15   1
    17    15    16   1
    18    16    17   1
    19    17    18   1
    20    18    19   1
    21    19    20   1
    22    20    21   1
    23    21    22   1
    24     1    23   1
    25     2    24   1
    26     3    25   1
    27     4    26   1
    28     4    27   1
    29     6    28   1
    30     7    29   1
    31     8    30   1
    32     9    31   1
    33    10    32   1
    34    11    33   1
    35    15    34   1
    36    15    35   1
    37    16    36   1
    38    16    37   1
    39    17    38   1
    40    17    39   1
    41    18    40   1
    42    18    41   1
    43    19    42   1
    44    19    43   1
    45    20    44   1
    46    20    45   1
    47    21    46   1
    48    21    47   1
    49    22    48   1
    50    22    49   1
    51    22    50   1
@<TRIPOS>SUBSTRUCTURE
     1  LGS      2

