@<TRIPOS>MOLECULE
2wbg_ligand_009
    50    51
SMALL
GAST_HUCK
****
This file was generated by PARSER (from files_GN.cpp)

@<TRIPOS>ATOM
      1 O4          0.3915    7.4406   13.9726 O.3         1 LGS      -0.3867
      2 C4          1.4036    6.7786   13.2199 C.3         1 LGS       0.1103
      3 C5          0.8867    6.4977   11.7817 C.3         1 LGS       0.1113
      4 C6          0.7117    7.7135   10.8394 C.3         1 LGS       0.1120
      5 O6          1.7998    7.6882    9.9035 O.3         1 LGS      -0.2547
      6 C3          1.7775    5.4432   13.9208 C.3         1 LGS       0.1137
      7 O3          2.3350    5.7651   15.1983 O.3         1 LGS      -0.3864
      8 C2          2.7977    4.6264   13.0694 C.3         1 LGS       0.1318
      9 O2          3.0070    3.3511   13.6713 O.3         1 LGS      -0.3843
     10 C1          2.3535    4.4692   11.5812 C.3         1 LGS       0.1770
     11 O1          3.4657    3.9578   10.8459 O.3         1 LGS      -0.3666
     12 N1          1.8697    5.7466   11.0821 N.pl3       1 LGS      -0.2126
     13 C7          2.2978    6.4283   10.0021 C.2         1 LGS       0.2439
     14 N2          3.2092    5.9533    9.1253 N.2         1 LGS      -0.3607
     15 C8          3.8207    6.5980    8.0178 C.3         1 LGS      -0.0300
     16 C9          5.3598    6.6017    8.1648 C.3         1 LGS      -0.0515
     17 C10         5.8656    7.5420    9.3003 C.3         1 LGS      -0.0530
     18 C11         7.4042    7.7010    9.4018 C.3         1 LGS      -0.0531
     19 C12         8.2367    6.4086    9.6648 C.3         1 LGS      -0.0531
     20 C13         8.6912    5.5718    8.4325 C.3         1 LGS      -0.0533
     21 C14         9.4983    6.3499    7.3484 C.3         1 LGS      -0.0559
     22 C15         8.6780    6.7464    6.0951 C.3         1 LGS      -0.0653
     23 H1          0.2930    8.3268   13.5633 H           1 LGS       0.2100
     24 H2          2.2866    7.4314   13.1734 H           1 LGS       0.0645
     25 H3         -0.0483    5.9349   11.8389 H           1 LGS       0.0626
     26 H4          0.7149    8.6613   11.3830 H           1 LGS       0.0660
     27 H5         -0.2346    7.6206   10.2925 H           1 LGS       0.0660
     28 H6          0.8697    4.8513   14.0699 H           1 LGS       0.0647
     29 H7          1.5801    5.9400   15.8042 H           1 LGS       0.2100
     30 H8          3.7535    5.1598   13.0925 H           1 LGS       0.0669
     31 H9          2.1162    2.9370   13.7197 H           1 LGS       0.2101
     32 H10         1.5347    3.7480   11.5133 H           1 LGS       0.0908
     33 H11         3.2698    3.0040   10.7259 H           1 LGS       0.2124
     34 H12         3.4757    7.6347    7.9192 H           1 LGS       0.0282
     35 H13         3.5425    6.0486    7.1027 H           1 LGS       0.0282
     36 H14         5.7943    6.9263    7.2062 H           1 LGS       0.0266
     37 H15         5.6842    5.5779    8.3743 H           1 LGS       0.0266
     38 H16         5.4694    7.1947   10.2628 H           1 LGS       0.0265
     39 H17         5.4480    8.5376    9.1091 H           1 LGS       0.0265
     40 H18         7.5892    8.3686   10.2553 H           1 LGS       0.0265
     41 H19         7.7786    8.2153    8.5132 H           1 LGS       0.0265
     42 H20         7.6576    5.7556   10.3287 H           1 LGS       0.0265
     43 H21         9.1455    6.6964   10.2222 H           1 LGS       0.0265
     44 H22         7.8328    5.0632    7.9834 H           1 LGS       0.0265
     45 H23         9.3425    4.7725    8.8270 H           1 LGS       0.0265
     46 H24        10.3203    5.7097    6.9951 H           1 LGS       0.0263
     47 H25         9.9555    7.2467    7.7750 H           1 LGS       0.0263
     48 H26         9.3196    7.2741    5.3864 H           1 LGS       0.0230
     49 H27         7.8456    7.3923    6.3609 H           1 LGS       0.0230
     50 H28         8.2819    5.8508    5.5973 H           1 LGS       0.0230
@<TRIPOS>BOND
     1     1     2   1
     2     2     3   1
     3     2     6   1
     4     3     4   1
     5     3    12   1
     6     4     5   1
     7     5    13   1
     8     6     7   1
     9     6     8   1
    10     8     9   1
    11     8    10   1
    12    10    11   1
    13    10    12   1
    14    12    13   1
    15    13    14   2
    16    14    15   1
    17    15    16   1
    18    16    17   1
    19    17    18   1
    20    18    19   1
    21    19    20   1
    22    20    21   1
    23    21    22   1
    24     1    23   1
    25     2    24   1
    26     3    25   1
    27     4    26   1
    28     4    27   1
    29     6    28   1
    30     7    29   1
    31     8    30   1
    32     9    31   1
    33    10    32   1
    34    11    33   1
    35    15    34   1
    36    15    35   1
    37    16    36   1
    38    16    37   1
    39    17    38   1
    40    17    39   1
    41    18    40   1
    42    18    41   1
    43    19    42   1
    44    19    43   1
    45    20    44   1
    46    20    45   1
    47    21    46   1
    48    21    47   1
    49    22    48   1
    50    22    49   1
    51    22    50   1
@<TRIPOS>SUBSTRUCTURE
     1  LGS      2

