@<TRIPOS>MOLECULE
2wbg_ligand_064
    50    51
SMALL
GAST_HUCK
****
This file was generated by PARSER (from files_GN.cpp)

@<TRIPOS>ATOM
      1 O4          2.5540    3.2057    8.5743 O.3         1 LGS      -0.3867
      2 C4          3.1702    4.4230    8.9958 C.3         1 LGS       0.1103
      3 C5          4.6625    4.1674    9.3348 C.3         1 LGS       0.1113
      4 C6          5.5407    3.7210    8.1540 C.3         1 LGS       0.1120
      5 O6          6.8298    4.2680    8.4272 O.3         1 LGS      -0.2547
      6 C3          2.4220    5.0267   10.2223 C.3         1 LGS       0.1137
      7 O3          1.2563    5.7171    9.7700 O.3         1 LGS      -0.3864
      8 C2          3.3141    5.9565   11.1190 C.3         1 LGS       0.1318
      9 O2          3.6354    5.2760   12.3321 O.3         1 LGS      -0.3843
     10 C1          4.6615    6.4050   10.4630 C.3         1 LGS       0.1770
     11 O1          4.4172    7.4756    9.5521 O.3         1 LGS      -0.3666
     12 N1          5.3396    5.3452    9.7523 N.pl3       1 LGS      -0.2126
     13 C7          6.5915    5.3338    9.2372 C.2         1 LGS       0.2439
     14 N2          7.6628    6.1414    9.4090 N.2         1 LGS      -0.3607
     15 C8          7.9447    7.2679   10.2210 C.3         1 LGS      -0.0300
     16 C9          7.4826    8.6332    9.6272 C.3         1 LGS      -0.0515
     17 C10         8.6397    9.5472    9.1087 C.3         1 LGS      -0.0530
     18 C11         8.2510   11.0300    8.8696 C.3         1 LGS      -0.0531
     19 C12         7.3562   11.2730    7.6218 C.3         1 LGS      -0.0531
     20 C13         6.6361   12.6490    7.5733 C.3         1 LGS      -0.0533
     21 C14         7.4701   13.8701    7.0861 C.3         1 LGS      -0.0559
     22 C15         8.4151   14.4954    8.1366 C.3         1 LGS      -0.0653
     23 H1          2.6767    2.5751    9.3202 H           1 LGS       0.2100
     24 H2          3.1191    5.1325    8.1669 H           1 LGS       0.0645
     25 H3          4.7256    3.4249   10.1366 H           1 LGS       0.0626
     26 H4          5.1794    4.1156    7.1979 H           1 LGS       0.0660
     27 H5          5.6006    2.6319    8.0925 H           1 LGS       0.0660
     28 H6          2.0490    4.1982   10.8320 H           1 LGS       0.0647
     29 H7          1.5892    6.4867    9.2640 H           1 LGS       0.2100
     30 H8          2.7508    6.8508   11.4078 H           1 LGS       0.0669
     31 H9          2.7737    5.0966   12.7686 H           1 LGS       0.2101
     32 H10         5.2968    6.7938   11.2568 H           1 LGS       0.0908
     33 H11         3.7993    7.1204    8.8801 H           1 LGS       0.2124
     34 H12         9.0258    7.2598   10.3706 H           1 LGS       0.0282
     35 H13         7.5124    7.1041   11.2098 H           1 LGS       0.0282
     36 H14         6.9489    9.1780   10.4126 H           1 LGS       0.0266
     37 H15         6.7691    8.4696    8.8203 H           1 LGS       0.0266
     38 H16         9.0509    9.1196    8.1890 H           1 LGS       0.0265
     39 H17         9.4394    9.5555    9.8543 H           1 LGS       0.0265
     40 H18         9.1700   11.6067    8.7399 H           1 LGS       0.0265
     41 H19         7.7545   11.4064    9.7678 H           1 LGS       0.0265
     42 H20         6.5757   10.5091    7.6041 H           1 LGS       0.0265
     43 H21         7.9607   11.1428    6.7215 H           1 LGS       0.0265
     44 H22         6.1896   12.8736    8.5467 H           1 LGS       0.0265
     45 H23         5.8052   12.5313    6.8712 H           1 LGS       0.0265
     46 H24         6.7629   14.6505    6.7880 H           1 LGS       0.0263
     47 H25         8.0460   13.6035    6.1946 H           1 LGS       0.0263
     48 H26         8.7472   15.4754    7.7849 H           1 LGS       0.0230
     49 H27         9.3006   13.8738    8.2877 H           1 LGS       0.0230
     50 H28         7.9025   14.6259    9.0917 H           1 LGS       0.0230
@<TRIPOS>BOND
     1     1     2   1
     2     2     3   1
     3     2     6   1
     4     3     4   1
     5     3    12   1
     6     4     5   1
     7     5    13   1
     8     6     7   1
     9     6     8   1
    10     8     9   1
    11     8    10   1
    12    10    11   1
    13    10    12   1
    14    12    13   1
    15    13    14   2
    16    14    15   1
    17    15    16   1
    18    16    17   1
    19    17    18   1
    20    18    19   1
    21    19    20   1
    22    20    21   1
    23    21    22   1
    24     1    23   1
    25     2    24   1
    26     3    25   1
    27     4    26   1
    28     4    27   1
    29     6    28   1
    30     7    29   1
    31     8    30   1
    32     9    31   1
    33    10    32   1
    34    11    33   1
    35    15    34   1
    36    15    35   1
    37    16    36   1
    38    16    37   1
    39    17    38   1
    40    17    39   1
    41    18    40   1
    42    18    41   1
    43    19    42   1
    44    19    43   1
    45    20    44   1
    46    20    45   1
    47    21    46   1
    48    21    47   1
    49    22    48   1
    50    22    49   1
    51    22    50   1
@<TRIPOS>SUBSTRUCTURE
     1  LGS      2

