@<TRIPOS>MOLECULE
2wbg_ligand_025
    50    51
SMALL
GAST_HUCK
****
This file was generated by PARSER (from files_GN.cpp)

@<TRIPOS>ATOM
      1 O4          2.7217    4.9313    2.7620 O.3         1 LGS      -0.3867
      2 C4          2.6087    4.1747    3.9665 C.3         1 LGS       0.1103
      3 C5          3.3569    4.8976    5.1266 C.3         1 LGS       0.1113
      4 C6          2.7634    6.2518    5.5803 C.3         1 LGS       0.1120
      5 O6          2.7425    6.2346    7.0139 O.3         1 LGS      -0.2547
      6 C3          3.0781    2.6886    3.7815 C.3         1 LGS       0.1137
      7 O3          1.9275    1.8839    3.5032 O.3         1 LGS      -0.3864
      8 C2          3.8668    2.1125    5.0009 C.3         1 LGS       0.1318
      9 O2          5.2584    2.4026    4.8637 O.3         1 LGS      -0.3843
     10 C1          3.3848    2.6978    6.3615 C.3         1 LGS       0.1770
     11 O1          2.1286    2.1109    6.7122 O.3         1 LGS      -0.3666
     12 N1          3.2471    4.1352    6.3173 N.pl3       1 LGS      -0.2126
     13 C7          2.8741    4.9189    7.3460 C.2         1 LGS       0.2439
     14 N2          2.6252    4.4486    8.5913 N.2         1 LGS      -0.3607
     15 C8          2.1723    5.2252    9.6996 C.3         1 LGS      -0.0300
     16 C9          1.9545    4.3745   10.9882 C.3         1 LGS      -0.0515
     17 C10         3.1102    4.4036   12.0326 C.3         1 LGS      -0.0530
     18 C11         3.0821    5.5751   13.0721 C.3         1 LGS      -0.0531
     19 C12         3.3641    7.0149   12.5521 C.3         1 LGS      -0.0531
     20 C13         4.8523    7.2487   12.1459 C.3         1 LGS      -0.0533
     21 C14         5.1204    8.5235   11.2933 C.3         1 LGS      -0.0559
     22 C15         4.3665    8.5682    9.9406 C.3         1 LGS      -0.0653
     23 H1          3.4255    4.5021    2.2225 H           1 LGS       0.2100
     24 H2          1.5441    4.1736    4.2213 H           1 LGS       0.0645
     25 H3          4.4149    5.0187    4.8703 H           1 LGS       0.0626
     26 H4          1.7410    6.3818    5.2176 H           1 LGS       0.0660
     27 H5          3.3690    7.0890    5.2248 H           1 LGS       0.0660
     28 H6          3.7269    2.6175    2.9060 H           1 LGS       0.0647
     29 H7          1.9716    1.6942    2.5423 H           1 LGS       0.2100
     30 H8          3.7775    1.0291    5.0368 H           1 LGS       0.0669
     31 H9          5.5727    1.8250    4.1366 H           1 LGS       0.2101
     32 H10         4.1044    2.4276    7.1405 H           1 LGS       0.0908
     33 H11         1.5012    2.4129    6.0190 H           1 LGS       0.2124
     34 H12         1.2201    5.6873    9.4122 H           1 LGS       0.0282
     35 H13         2.8990    6.0255    9.8729 H           1 LGS       0.0282
     36 H14         1.7794    3.3402   10.6912 H           1 LGS       0.0266
     37 H15         1.0411    4.7174   11.4766 H           1 LGS       0.0266
     38 H16         4.0778    4.3654   11.5171 H           1 LGS       0.0265
     39 H17         3.0309    3.4763   12.6160 H           1 LGS       0.0265
     40 H18         3.8081    5.3462   13.8576 H           1 LGS       0.0265
     41 H19         2.0964    5.5802   13.5408 H           1 LGS       0.0265
     42 H20         3.1268    7.7126   13.3566 H           1 LGS       0.0265
     43 H21         2.6938    7.2386   11.7144 H           1 LGS       0.0265
     44 H22         5.2396    6.3883   11.5861 H           1 LGS       0.0265
     45 H23         5.4463    7.3368   13.0588 H           1 LGS       0.0265
     46 H24         6.1942    8.5608   11.0724 H           1 LGS       0.0263
     47 H25         4.8796    9.4176   11.8761 H           1 LGS       0.0263
     48 H26         4.7532    9.3877    9.3263 H           1 LGS       0.0230
     49 H27         3.2960    8.7354   10.1037 H           1 LGS       0.0230
     50 H28         4.5008    7.6355    9.3904 H           1 LGS       0.0230
@<TRIPOS>BOND
     1     1     2   1
     2     2     3   1
     3     2     6   1
     4     3     4   1
     5     3    12   1
     6     4     5   1
     7     5    13   1
     8     6     7   1
     9     6     8   1
    10     8     9   1
    11     8    10   1
    12    10    11   1
    13    10    12   1
    14    12    13   1
    15    13    14   2
    16    14    15   1
    17    15    16   1
    18    16    17   1
    19    17    18   1
    20    18    19   1
    21    19    20   1
    22    20    21   1
    23    21    22   1
    24     1    23   1
    25     2    24   1
    26     3    25   1
    27     4    26   1
    28     4    27   1
    29     6    28   1
    30     7    29   1
    31     8    30   1
    32     9    31   1
    33    10    32   1
    34    11    33   1
    35    15    34   1
    36    15    35   1
    37    16    36   1
    38    16    37   1
    39    17    38   1
    40    17    39   1
    41    18    40   1
    42    18    41   1
    43    19    42   1
    44    19    43   1
    45    20    44   1
    46    20    45   1
    47    21    46   1
    48    21    47   1
    49    22    48   1
    50    22    49   1
    51    22    50   1
@<TRIPOS>SUBSTRUCTURE
     1  LGS      2

