@<TRIPOS>MOLECULE
2wbg_ligand_053
    50    51
SMALL
GAST_HUCK
****
This file was generated by PARSER (from files_GN.cpp)

@<TRIPOS>ATOM
      1 O4          2.8829    3.7814    2.0547 O.3         1 LGS      -0.3867
      2 C4          2.9318    3.7620    3.4788 C.3         1 LGS       0.1103
      3 C5          4.2609    4.3832    4.0112 C.3         1 LGS       0.1113
      4 C6          4.3701    5.9169    3.8546 C.3         1 LGS       0.1120
      5 O6          4.7591    6.4411    5.1275 O.3         1 LGS      -0.2547
      6 C3          2.7787    2.3065    4.0046 C.3         1 LGS       0.1137
      7 O3          1.5656    1.7228    3.5386 O.3         1 LGS      -0.3864
      8 C2          2.8460    2.3025    5.5613 C.3         1 LGS       0.1318
      9 O2          2.7029    0.9876    6.0990 O.3         1 LGS      -0.3843
     10 C1          4.1980    2.9137    6.0254 C.3         1 LGS       0.1770
     11 O1          4.2443    2.8940    7.4523 O.3         1 LGS      -0.3666
     12 N1          4.3691    4.2181    5.4212 N.pl3       1 LGS      -0.2126
     13 C7          4.6182    5.4120    6.0077 C.2         1 LGS       0.2439
     14 N2          4.7620    5.5895    7.3355 N.2         1 LGS      -0.3607
     15 C8          5.0412    6.7925    8.0470 C.3         1 LGS      -0.0300
     16 C9          3.9499    7.0561    9.1116 C.3         1 LGS      -0.0515
     17 C10         4.1137    8.3953    9.8818 C.3         1 LGS      -0.0530
     18 C11         5.4374    8.5237   10.6906 C.3         1 LGS      -0.0531
     19 C12         5.4528    9.6566   11.7603 C.3         1 LGS      -0.0531
     20 C13         5.1327   11.0973   11.2745 C.3         1 LGS      -0.0533
     21 C14         6.1562   11.7293   10.2830 C.3         1 LGS      -0.0559
     22 C15         7.3479   12.4326   10.9701 C.3         1 LGS      -0.0653
     23 H1          3.5879    3.1658    1.7595 H           1 LGS       0.2100
     24 H2          2.0850    4.3545    3.8385 H           1 LGS       0.0645
     25 H3          5.1155    3.8956    3.5288 H           1 LGS       0.0626
     26 H4          3.4170    6.3717    3.5736 H           1 LGS       0.0660
     27 H5          5.1131    6.1855    3.0999 H           1 LGS       0.0660
     28 H6          3.5963    1.6958    3.6111 H           1 LGS       0.0647
     29 H7          1.7062    1.5686    2.5768 H           1 LGS       0.2100
     30 H8          2.0314    2.9131    5.9642 H           1 LGS       0.0669
     31 H9          1.7357    0.8358    6.1565 H           1 LGS       0.2101
     32 H10         5.0126    2.2705    5.6795 H           1 LGS       0.0908
     33 H11         5.1635    3.1462    7.6846 H           1 LGS       0.2124
     34 H12         5.1095    7.6487    7.3733 H           1 LGS       0.0282
     35 H13         6.0071    6.6612    8.5369 H           1 LGS       0.0282
     36 H14         3.9403    6.2289    9.8283 H           1 LGS       0.0266
     37 H15         2.9766    7.0646    8.6106 H           1 LGS       0.0266
     38 H16         3.2737    8.4825   10.5720 H           1 LGS       0.0265
     39 H17         4.0436    9.2216    9.1702 H           1 LGS       0.0265
     40 H18         6.2641    8.6709    9.9958 H           1 LGS       0.0265
     41 H19         5.6262    7.5785   11.2059 H           1 LGS       0.0265
     42 H20         6.4329    9.6672   12.2454 H           1 LGS       0.0265
     43 H21         4.7190    9.3986   12.5292 H           1 LGS       0.0265
     44 H22         5.0420   11.7370   12.1589 H           1 LGS       0.0265
     45 H23         4.1481   11.0910   10.8046 H           1 LGS       0.0265
     46 H24         5.6382   12.4772    9.6787 H           1 LGS       0.0263
     47 H25         6.5437   10.9838    9.5865 H           1 LGS       0.0263
     48 H26         8.0091   12.8598   10.2129 H           1 LGS       0.0230
     49 H27         7.9169   11.7232   11.5729 H           1 LGS       0.0230
     50 H28         6.9947   13.2432   11.6107 H           1 LGS       0.0230
@<TRIPOS>BOND
     1     1     2   1
     2     2     3   1
     3     2     6   1
     4     3     4   1
     5     3    12   1
     6     4     5   1
     7     5    13   1
     8     6     7   1
     9     6     8   1
    10     8     9   1
    11     8    10   1
    12    10    11   1
    13    10    12   1
    14    12    13   1
    15    13    14   2
    16    14    15   1
    17    15    16   1
    18    16    17   1
    19    17    18   1
    20    18    19   1
    21    19    20   1
    22    20    21   1
    23    21    22   1
    24     1    23   1
    25     2    24   1
    26     3    25   1
    27     4    26   1
    28     4    27   1
    29     6    28   1
    30     7    29   1
    31     8    30   1
    32     9    31   1
    33    10    32   1
    34    11    33   1
    35    15    34   1
    36    15    35   1
    37    16    36   1
    38    16    37   1
    39    17    38   1
    40    17    39   1
    41    18    40   1
    42    18    41   1
    43    19    42   1
    44    19    43   1
    45    20    44   1
    46    20    45   1
    47    21    46   1
    48    21    47   1
    49    22    48   1
    50    22    49   1
    51    22    50   1
@<TRIPOS>SUBSTRUCTURE
     1  LGS      2

