@<TRIPOS>MOLECULE
2wbg_ligand_008
    50    51
SMALL
GAST_HUCK
****
This file was generated by PARSER (from files_GN.cpp)

@<TRIPOS>ATOM
      1 O4          2.4921    5.3186    3.0592 O.3         1 LGS      -0.3867
      2 C4          2.7190    4.4971    4.2015 C.3         1 LGS       0.1103
      3 C5          3.7953    5.1553    5.1142 C.3         1 LGS       0.1113
      4 C6          3.4112    6.4970    5.7764 C.3         1 LGS       0.1120
      5 O6          3.8795    6.4205    7.1282 O.3         1 LGS      -0.2547
      6 C3          3.1149    3.0403    3.7764 C.3         1 LGS       0.1137
      7 O3          1.9367    2.2337    3.6712 O.3         1 LGS      -0.3864
      8 C2          4.1472    2.3494    4.7366 C.3         1 LGS       0.1318
      9 O2          5.4723    2.5048    4.2254 O.3         1 LGS      -0.3843
     10 C1          4.0733    2.8892    6.1975 C.3         1 LGS       0.1770
     11 O1          2.9401    2.3084    6.8482 O.3         1 LGS      -0.3666
     12 N1          3.9927    4.3329    6.2561 N.pl3       1 LGS      -0.2126
     13 C7          3.9341    5.0853    7.3697 C.2         1 LGS       0.2439
     14 N2          3.8534    4.5567    8.6146 N.2         1 LGS      -0.3607
     15 C8          3.8386    5.2001    9.8882 C.3         1 LGS      -0.0300
     16 C9          2.8965    6.4171   10.0841 C.3         1 LGS      -0.0515
     17 C10         1.3862    6.1680    9.7914 C.3         1 LGS      -0.0530
     18 C11         0.4700    7.3836   10.1245 C.3         1 LGS      -0.0531
     19 C12        -0.2126    7.4492   11.5281 C.3         1 LGS      -0.0531
     20 C13         0.6282    7.1121   12.7999 C.3         1 LGS      -0.0533
     21 C14         0.6254    5.5998   13.1717 C.3         1 LGS      -0.0559
     22 C15         1.3581    5.2893   14.4968 C.3         1 LGS      -0.0653
     23 H1          2.1107    6.1520    3.4086 H           1 LGS       0.2100
     24 H2          1.7815    4.4542    4.7637 H           1 LGS       0.0645
     25 H3          4.7372    5.2734    4.5725 H           1 LGS       0.0626
     26 H4          2.3278    6.6411    5.7889 H           1 LGS       0.0660
     27 H5          3.8677    7.3449    5.2646 H           1 LGS       0.0660
     28 H6          3.5514    3.0753    2.7730 H           1 LGS       0.0647
     29 H7          2.2574    1.3295    3.4688 H           1 LGS       0.2100
     30 H8          3.9738    1.2715    4.7520 H           1 LGS       0.0669
     31 H9          5.6601    3.4643    4.2517 H           1 LGS       0.2101
     32 H10         4.9694    2.5557    6.7312 H           1 LGS       0.0908
     33 H11         2.1584    2.6982    6.4017 H           1 LGS       0.2124
     34 H12         4.8586    5.5217   10.1137 H           1 LGS       0.0282
     35 H13         3.5782    4.4286   10.6190 H           1 LGS       0.0282
     36 H14         3.2413    7.2363    9.4407 H           1 LGS       0.0266
     37 H15         3.0177    6.7451   11.1206 H           1 LGS       0.0266
     38 H16         1.0314    5.2809   10.3188 H           1 LGS       0.0265
     39 H17         1.2915    5.9521    8.7197 H           1 LGS       0.0265
     40 H18        -0.3466    7.3788    9.3944 H           1 LGS       0.0265
     41 H19         1.0195    8.3171    9.9598 H           1 LGS       0.0265
     42 H20        -1.1005    6.8093   11.5040 H           1 LGS       0.0265
     43 H21        -0.5812    8.4732   11.6463 H           1 LGS       0.0265
     44 H22         0.1914    7.6520   13.6462 H           1 LGS       0.0265
     45 H23         1.6502    7.4840   12.6900 H           1 LGS       0.0265
     46 H24         1.0963    5.0094   12.3853 H           1 LGS       0.0263
     47 H25        -0.4136    5.2666   13.2674 H           1 LGS       0.0263
     48 H26         1.2089    4.2363   14.7537 H           1 LGS       0.0230
     49 H27         0.9690    5.9095   15.3085 H           1 LGS       0.0230
     50 H28         2.4291    5.4753   14.3853 H           1 LGS       0.0230
@<TRIPOS>BOND
     1     1     2   1
     2     2     3   1
     3     2     6   1
     4     3     4   1
     5     3    12   1
     6     4     5   1
     7     5    13   1
     8     6     7   1
     9     6     8   1
    10     8     9   1
    11     8    10   1
    12    10    11   1
    13    10    12   1
    14    12    13   1
    15    13    14   2
    16    14    15   1
    17    15    16   1
    18    16    17   1
    19    17    18   1
    20    18    19   1
    21    19    20   1
    22    20    21   1
    23    21    22   1
    24     1    23   1
    25     2    24   1
    26     3    25   1
    27     4    26   1
    28     4    27   1
    29     6    28   1
    30     7    29   1
    31     8    30   1
    32     9    31   1
    33    10    32   1
    34    11    33   1
    35    15    34   1
    36    15    35   1
    37    16    36   1
    38    16    37   1
    39    17    38   1
    40    17    39   1
    41    18    40   1
    42    18    41   1
    43    19    42   1
    44    19    43   1
    45    20    44   1
    46    20    45   1
    47    21    46   1
    48    21    47   1
    49    22    48   1
    50    22    49   1
    51    22    50   1
@<TRIPOS>SUBSTRUCTURE
     1  LGS      2

