@<TRIPOS>MOLECULE
2wbg_ligand_058
    50    51
SMALL
GAST_HUCK
****
This file was generated by PARSER (from files_GN.cpp)

@<TRIPOS>ATOM
      1 O4          2.2673    7.2631   12.6893 O.3         1 LGS      -0.3867
      2 C4          2.8309    6.3981   11.7048 C.3         1 LGS       0.1103
      3 C5          2.7096    7.0259   10.2801 C.3         1 LGS       0.1113
      4 C6          3.6366    8.2276   10.0162 C.3         1 LGS       0.1120
      5 O6          4.1294    8.0566    8.6888 O.3         1 LGS      -0.2547
      6 C3          2.0899    5.0369   11.7527 C.3         1 LGS       0.1137
      7 O3          2.2874    4.4235   13.0255 O.3         1 LGS      -0.3864
      8 C2          2.5998    4.1073   10.6201 C.3         1 LGS       0.1318
      9 O2          1.8400    2.9003   10.6227 O.3         1 LGS      -0.3843
     10 C1          2.5060    4.8037    9.2291 C.3         1 LGS       0.1770
     11 O1          3.0544    3.9197    8.2574 O.3         1 LGS      -0.3666
     12 N1          3.1131    6.1161    9.2598 N.pl3       1 LGS      -0.2126
     13 C7          3.9294    6.7483    8.3784 C.2         1 LGS       0.2439
     14 N2          4.5391    6.3816    7.2287 N.2         1 LGS      -0.3607
     15 C8          4.7734    5.2606    6.3847 C.3         1 LGS      -0.0300
     16 C9          5.4990    5.7145    5.0925 C.3         1 LGS      -0.0515
     17 C10         4.5714    6.5142    4.1337 C.3         1 LGS      -0.0530
     18 C11         5.1798    6.8021    2.7331 C.3         1 LGS      -0.0531
     19 C12         6.3492    7.8216    2.6722 C.3         1 LGS      -0.0531
     20 C13         5.9855    9.2500    3.1583 C.3         1 LGS      -0.0533
     21 C14         7.1544   10.2546    2.9975 C.3         1 LGS      -0.0559
     22 C15         6.8074   11.6621    3.5336 C.3         1 LGS      -0.0653
     23 H1          2.6601    8.1398   12.5221 H           1 LGS       0.2100
     24 H2          3.8851    6.2379   11.9487 H           1 LGS       0.0645
     25 H3          1.6698    7.3217   10.1007 H           1 LGS       0.0626
     26 H4          4.4851    8.2514   10.7052 H           1 LGS       0.0660
     27 H5          3.0961    9.1733   10.0847 H           1 LGS       0.0660
     28 H6          1.0152    5.2072   11.6264 H           1 LGS       0.0647
     29 H7          1.6697    3.6668   13.0510 H           1 LGS       0.2100
     30 H8          3.6453    3.8543   10.8224 H           1 LGS       0.0669
     31 H9          2.4839    2.1980   10.3981 H           1 LGS       0.2101
     32 H10         1.4504    4.9501    8.9798 H           1 LGS       0.0908
     33 H11         2.4824    3.1306    8.2720 H           1 LGS       0.2124
     34 H12         3.8372    4.7753    6.1038 H           1 LGS       0.0282
     35 H13         5.3981    4.5421    6.9219 H           1 LGS       0.0282
     36 H14         5.8607    4.8217    4.5739 H           1 LGS       0.0266
     37 H15         6.3689    6.3201    5.3611 H           1 LGS       0.0266
     38 H16         4.2718    7.4477    4.6087 H           1 LGS       0.0265
     39 H17         3.6576    5.9357    3.9753 H           1 LGS       0.0265
     40 H18         4.3780    7.1657    2.0839 H           1 LGS       0.0265
     41 H19         5.5281    5.8563    2.3100 H           1 LGS       0.0265
     42 H20         6.6743    7.8868    1.6299 H           1 LGS       0.0265
     43 H21         7.1917    7.4418    3.2548 H           1 LGS       0.0265
     44 H22         5.7098    9.2146    4.2139 H           1 LGS       0.0265
     45 H23         5.1252    9.6123    2.5893 H           1 LGS       0.0265
     46 H24         7.4157   10.3384    1.9401 H           1 LGS       0.0263
     47 H25         8.0305    9.8836    3.5367 H           1 LGS       0.0263
     48 H26         7.6537   12.3339    3.3809 H           1 LGS       0.0230
     49 H27         6.5848   11.6187    4.6005 H           1 LGS       0.0230
     50 H28         5.9414   12.0668    3.0063 H           1 LGS       0.0230
@<TRIPOS>BOND
     1     1     2   1
     2     2     3   1
     3     2     6   1
     4     3     4   1
     5     3    12   1
     6     4     5   1
     7     5    13   1
     8     6     7   1
     9     6     8   1
    10     8     9   1
    11     8    10   1
    12    10    11   1
    13    10    12   1
    14    12    13   1
    15    13    14   2
    16    14    15   1
    17    15    16   1
    18    16    17   1
    19    17    18   1
    20    18    19   1
    21    19    20   1
    22    20    21   1
    23    21    22   1
    24     1    23   1
    25     2    24   1
    26     3    25   1
    27     4    26   1
    28     4    27   1
    29     6    28   1
    30     7    29   1
    31     8    30   1
    32     9    31   1
    33    10    32   1
    34    11    33   1
    35    15    34   1
    36    15    35   1
    37    16    36   1
    38    16    37   1
    39    17    38   1
    40    17    39   1
    41    18    40   1
    42    18    41   1
    43    19    42   1
    44    19    43   1
    45    20    44   1
    46    20    45   1
    47    21    46   1
    48    21    47   1
    49    22    48   1
    50    22    49   1
    51    22    50   1
@<TRIPOS>SUBSTRUCTURE
     1  LGS      2

