@<TRIPOS>MOLECULE
2wca_ligand_044
    50    51
SMALL
GAST_HUCK
****
This file was generated by PARSER (from files_GN.cpp)

@<TRIPOS>ATOM
      1 C2        -10.6194  -10.8304    5.6534 C.3         1 NP6      -0.0632
      2 C1        -11.1447  -12.1234    4.9836 C.3         1 NP6      -0.0389
      3 C3        -10.3763  -13.4640    5.2390 C.3         1 NP6       0.0372
      4 C4         -9.2113  -13.4171    6.1114 C.2         1 NP6       0.1785
      5 O1         -8.0996  -13.6737    5.6369 O.2         1 NP6      -0.3969
      6 N1         -9.3874  -13.1411    7.3948 N.am        1 NP6      -0.2639
      7 C5         -8.5039  -13.0668    8.5407 C.3         1 NP6       0.1483
      8 C6         -9.2208  -12.0803    9.5157 C.3         1 NP6       0.1223
      9 O2        -10.5097  -12.5814    9.8715 O.3         1 NP6      -0.3842
     10 C7         -8.4028  -11.8086   10.8074 C.3         1 NP6       0.1187
     11 O3         -9.0912  -10.8239   11.5857 O.3         1 NP6      -0.3859
     12 C8         -6.9769  -11.3258   10.4173 C.3         1 NP6       0.1375
     13 C9         -6.0115  -11.2586   11.6402 C.3         1 NP6       0.0780
     14 O4         -5.2518  -10.0569   11.6383 O.3         1 NP6      -0.3919
     15 O5         -6.3780  -12.1978    9.4285 O.3         1 NP6      -0.2871
     16 C10        -7.1079  -12.6339    8.3799 C.2         1 NP6       0.1893
     17 N2         -6.4369  -13.1285    7.4039 N.2         1 NP6      -0.1541
     18 O6         -5.1846  -12.9699    7.1810 O.3         1 NP6      -0.1506
     19 C11        -4.5209  -13.6979    6.2491 C.2         1 NP6       0.3788
     20 O7         -3.2151  -13.3853    6.0428 O.2         1 NP6      -0.3643
     21 N3         -5.1094  -14.7665    5.6524 N.am        1 NP6      -0.2057
     22 C12        -4.4981  -15.6488    4.8233 C.ar        1 NP6       0.0683
     23 C13        -4.0463  -15.3017    3.5307 C.ar        1 NP6      -0.0414
     24 C14        -3.3896  -16.2548    2.7288 C.ar        1 NP6      -0.0756
     25 C15        -3.1725  -17.5563    3.2182 C.ar        1 NP6      -0.0773
     26 C16        -3.6389  -17.9133    4.4971 C.ar        1 NP6      -0.0756
     27 C17        -4.3191  -16.9685    5.2884 C.ar        1 NP6      -0.0414
     28 H1        -11.3055  -10.0045    5.4448 H           1 NP6       0.0231
     29 H2         -9.6339  -10.5682    5.2628 H           1 NP6       0.0231
     30 H3        -10.5556  -10.9501    6.7345 H           1 NP6       0.0231
     31 H4        -11.1674  -11.9338    3.9055 H           1 NP6       0.0287
     32 H5        -12.1883  -12.2581    5.3042 H           1 NP6       0.0287
     33 H6        -10.0783  -13.8662    4.2624 H           1 NP6       0.0502
     34 H7        -11.0815  -14.1923    5.6511 H           1 NP6       0.0502
     35 H8        -10.3250  -13.0203    7.6219 H           1 NP6       0.1888
     36 H9         -8.4756  -14.0508    9.0113 H           1 NP6       0.0821
     37 H10        -9.3699  -11.1245    9.0001 H           1 NP6       0.0672
     38 H11       -10.9826  -11.8202   10.2742 H           1 NP6       0.2103
     39 H12        -8.3269  -12.7350   11.3860 H           1 NP6       0.0653
     40 H13        -8.5138  -10.6290   12.3537 H           1 NP6       0.2100
     41 H14        -7.0617  -10.3317    9.9717 H           1 NP6       0.0708
     42 H15        -5.3157  -12.1007   11.6178 H           1 NP6       0.0588
     43 H16        -6.5489  -11.3102   12.5850 H           1 NP6       0.0588
     44 H17        -5.6818   -9.4849   12.3131 H           1 NP6       0.2095
     45 H18        -5.9871  -15.0156    5.9853 H           1 NP6       0.2276
     46 H19        -4.1989  -14.3616    3.1620 H           1 NP6       0.0501
     47 H20        -3.0693  -16.0009    1.7895 H           1 NP6       0.0577
     48 H21        -2.6917  -18.2478    2.6398 H           1 NP6       0.0487
     49 H22        -3.4863  -18.8612    4.8519 H           1 NP6       0.0577
     50 H23        -4.6481  -17.2389    6.2204 H           1 NP6       0.0501
@<TRIPOS>BOND
     1     1     2   1
     2     2     3   1
     3     3     4   1
     4     4     5   2
     5     4     6  am
     6     6     7   1
     7     7     8   1
     8     7    16   1
     9     8     9   1
    10     8    10   1
    11    10    11   1
    12    10    12   1
    13    12    13   1
    14    12    15   1
    15    13    14   1
    16    15    16   1
    17    16    17   2
    18    17    18   1
    19    18    19   1
    20    19    20   2
    21    19    21  am
    22    21    22   1
    23    22    23  ar
    24    22    27  ar
    25    23    24  ar
    26    24    25  ar
    27    25    26  ar
    28    26    27  ar
    29     1    28   1
    30     1    29   1
    31     1    30   1
    32     2    31   1
    33     2    32   1
    34     3    33   1
    35     3    34   1
    36     6    35   1
    37     7    36   1
    38     8    37   1
    39     9    38   1
    40    10    39   1
    41    11    40   1
    42    12    41   1
    43    13    42   1
    44    13    43   1
    45    14    44   1
    46    21    45   1
    47    23    46   1
    48    24    47   1
    49    25    48   1
    50    26    49   1
    51    27    50   1
@<TRIPOS>SUBSTRUCTURE
     1  NP6      1

