@<TRIPOS>MOLECULE
2wca_ligand_023
    50    51
SMALL
GAST_HUCK
****
This file was generated by PARSER (from files_GN.cpp)

@<TRIPOS>ATOM
      1 C2         -3.8968  -21.1648   14.5773 C.3         1 NP6      -0.0632
      2 C1         -5.3109  -21.3151   15.1825 C.3         1 NP6      -0.0389
      3 C3         -6.3040  -20.1889   14.7792 C.3         1 NP6       0.0372
      4 C4         -6.7180  -20.2237   13.3855 C.2         1 NP6       0.1785
      5 O1         -6.4031  -19.2922   12.6531 O.2         1 NP6      -0.3969
      6 N1         -7.4594  -21.2348   12.9406 N.am        1 NP6      -0.2639
      7 C5         -8.0083  -21.4330   11.6229 C.3         1 NP6       0.1483
      8 C6         -6.8839  -21.5075   10.5314 C.3         1 NP6       0.1223
      9 O2         -6.3493  -22.8348   10.4883 O.3         1 NP6      -0.3842
     10 C7         -7.3660  -21.0658    9.1226 C.3         1 NP6       0.1187
     11 O3         -6.2493  -20.8857    8.2492 O.3         1 NP6      -0.3859
     12 C8         -8.1480  -19.7289    9.2532 C.3         1 NP6       0.1375
     13 C9         -8.6725  -19.1636    7.9067 C.3         1 NP6       0.0780
     14 O4         -9.6479  -20.0168    7.3073 O.3         1 NP6      -0.3919
     15 O5         -9.2790  -19.9167   10.1216 O.3         1 NP6      -0.2871
     16 C10        -9.0897  -20.4857   11.3307 C.2         1 NP6       0.1893
     17 N2        -10.0449  -20.3591   12.1785 N.2         1 NP6      -0.1541
     18 O6        -11.0581  -19.6236   11.9691 O.3         1 NP6      -0.1506
     19 C11       -12.1139  -19.4633   12.7966 C.2         1 NP6       0.3788
     20 O7        -12.1873  -20.1640   13.9518 O.2         1 NP6      -0.3643
     21 N3        -13.1295  -18.6208   12.5128 N.am        1 NP6      -0.2057
     22 C12       -13.2925  -17.7496   11.4726 C.ar        1 NP6       0.0683
     23 C13       -14.5914  -17.2139   11.3169 C.ar        1 NP6      -0.0414
     24 C14       -14.8789  -16.3012   10.2856 C.ar        1 NP6      -0.0756
     25 C15       -13.8640  -15.8990    9.4015 C.ar        1 NP6      -0.0773
     26 C16       -12.5594  -16.3983    9.5585 C.ar        1 NP6      -0.0756
     27 C17       -12.2711  -17.3085   10.5924 C.ar        1 NP6      -0.0414
     28 H1         -3.2645  -21.9878   14.9162 H           1 NP6       0.0231
     29 H2         -3.4465  -20.2245   14.9013 H           1 NP6       0.0231
     30 H3         -3.9366  -21.1842   13.4876 H           1 NP6       0.0231
     31 H4         -5.2095  -21.3088   16.2715 H           1 NP6       0.0287
     32 H5         -5.7158  -22.2895   14.8997 H           1 NP6       0.0287
     33 H6         -5.8528  -19.2208   15.0271 H           1 NP6       0.0502
     34 H7         -7.2003  -20.2826   15.3999 H           1 NP6       0.0502
     35 H8         -7.6689  -21.9260   13.5895 H           1 NP6       0.1888
     36 H9         -8.4946  -22.4133   11.6520 H           1 NP6       0.0821
     37 H10        -6.0564  -20.8485   10.8049 H           1 NP6       0.0672
     38 H11        -5.6895  -22.8413    9.7628 H           1 NP6       0.2103
     39 H12        -8.0283  -21.8331    8.7096 H           1 NP6       0.0653
     40 H13        -5.7628  -21.7339    8.2562 H           1 NP6       0.2100
     41 H14        -7.4921  -18.9702    9.6955 H           1 NP6       0.0708
     42 H15        -7.8449  -19.0383    7.2059 H           1 NP6       0.0588
     43 H16        -9.1224  -18.1812    8.0698 H           1 NP6       0.0588
     44 H17       -10.4936  -19.8398    7.7745 H           1 NP6       0.2095
     45 H18       -13.8630  -18.6440   13.1420 H           1 NP6       0.2276
     46 H19       -15.3448  -17.4913   11.9529 H           1 NP6       0.0501
     47 H20       -15.8256  -15.9279   10.1847 H           1 NP6       0.0577
     48 H21       -14.0701  -15.2384    8.6524 H           1 NP6       0.0487
     49 H22       -11.8149  -16.0915    8.9287 H           1 NP6       0.0577
     50 H23       -11.3078  -17.6233   10.6971 H           1 NP6       0.0501
@<TRIPOS>BOND
     1     1     2   1
     2     2     3   1
     3     3     4   1
     4     4     5   2
     5     4     6  am
     6     6     7   1
     7     7     8   1
     8     7    16   1
     9     8     9   1
    10     8    10   1
    11    10    11   1
    12    10    12   1
    13    12    13   1
    14    12    15   1
    15    13    14   1
    16    15    16   1
    17    16    17   2
    18    17    18   1
    19    18    19   1
    20    19    20   2
    21    19    21  am
    22    21    22   1
    23    22    23  ar
    24    22    27  ar
    25    23    24  ar
    26    24    25  ar
    27    25    26  ar
    28    26    27  ar
    29     1    28   1
    30     1    29   1
    31     1    30   1
    32     2    31   1
    33     2    32   1
    34     3    33   1
    35     3    34   1
    36     6    35   1
    37     7    36   1
    38     8    37   1
    39     9    38   1
    40    10    39   1
    41    11    40   1
    42    12    41   1
    43    13    42   1
    44    13    43   1
    45    14    44   1
    46    21    45   1
    47    23    46   1
    48    24    47   1
    49    25    48   1
    50    26    49   1
    51    27    50   1
@<TRIPOS>SUBSTRUCTURE
     1  NP6      1

