@<TRIPOS>MOLECULE
2wca_ligand_040
    50    51
SMALL
GAST_HUCK
****
This file was generated by PARSER (from files_GN.cpp)

@<TRIPOS>ATOM
      1 C2         -5.1174  -16.9934    8.1263 C.3         1 NP6      -0.0632
      2 C1         -6.5440  -17.2700    8.6537 C.3         1 NP6      -0.0389
      3 C3         -7.3100  -15.9679    9.0077 C.3         1 NP6       0.0372
      4 C4         -8.6147  -16.2417    9.5784 C.2         1 NP6       0.1785
      5 O1         -8.8310  -15.9066   10.7378 O.2         1 NP6      -0.3969
      6 N1         -9.5613  -16.7705    8.8080 N.am        1 NP6      -0.2639
      7 C5        -10.9370  -17.0109    9.1534 C.3         1 NP6       0.1483
      8 C6        -11.7100  -15.6614    9.3224 C.3         1 NP6       0.1223
      9 O2        -11.6877  -14.9100    8.1051 O.3         1 NP6      -0.3842
     10 C7        -13.1744  -15.8936    9.7841 C.3         1 NP6       0.1187
     11 O3        -13.7980  -14.6346   10.0510 O.3         1 NP6      -0.3859
     12 C8        -13.1653  -16.7983   11.0524 C.3         1 NP6       0.1375
     13 C9        -14.5773  -17.2007   11.5557 C.3         1 NP6       0.0780
     14 O4        -15.4268  -17.6672   10.4981 O.3         1 NP6      -0.3919
     15 O5        -12.4347  -18.0162   10.8051 O.3         1 NP6      -0.2871
     16 C10       -11.1849  -17.8907   10.3010 C.2         1 NP6       0.1893
     17 N2        -10.3231  -18.7911   10.6205 N.2         1 NP6      -0.1541
     18 O6        -10.4979  -19.6106   11.5896 O.3         1 NP6      -0.1506
     19 C11        -9.8315  -20.7631   11.8104 C.2         1 NP6       0.3788
     20 O7        -10.1690  -21.4188   12.9514 O.2         1 NP6      -0.3643
     21 N3         -8.9601  -21.2513   10.8882 N.am        1 NP6      -0.2057
     22 C12        -8.3364  -22.4693   10.8105 C.ar        1 NP6       0.0683
     23 C13        -8.4374  -23.5463   11.7286 C.ar        1 NP6      -0.0414
     24 C14        -7.8353  -24.7974   11.4590 C.ar        1 NP6      -0.0756
     25 C15        -7.1293  -24.9911   10.2627 C.ar        1 NP6      -0.0773
     26 C16        -6.9929  -23.9307    9.3513 C.ar        1 NP6      -0.0756
     27 C17        -7.5878  -22.6831    9.6280 C.ar        1 NP6      -0.0414
     28 H1         -4.6109  -17.9340    7.8955 H           1 NP6       0.0231
     29 H2         -4.5372  -16.4571    8.8805 H           1 NP6       0.0231
     30 H3         -5.1629  -16.3918    7.2139 H           1 NP6       0.0231
     31 H4         -6.4636  -17.9101    9.5416 H           1 NP6       0.0287
     32 H5         -7.0913  -17.8264    7.8884 H           1 NP6       0.0287
     33 H6         -7.4255  -15.3609    8.1015 H           1 NP6       0.0502
     34 H7         -6.7063  -15.3936    9.7216 H           1 NP6       0.0502
     35 H8         -9.2961  -16.9951    7.9024 H           1 NP6       0.1888
     36 H9        -11.3801  -17.5301    8.2966 H           1 NP6       0.0821
     37 H10       -11.2173  -15.0446   10.0766 H           1 NP6       0.0672
     38 H11       -12.0829  -15.5011    7.4239 H           1 NP6       0.2103
     39 H12       -13.7247  -16.3925    8.9764 H           1 NP6       0.0653
     40 H13       -14.7243  -14.8504   10.2932 H           1 NP6       0.2100
     41 H14       -12.6740  -16.2641   11.8745 H           1 NP6       0.0708
     42 H15       -15.0687  -16.3470   12.0359 H           1 NP6       0.0588
     43 H16       -14.4839  -18.0023   12.3006 H           1 NP6       0.0588
     44 H17       -16.2472  -17.9696   10.9528 H           1 NP6       0.2095
     45 H18        -8.8015  -20.6625   10.1269 H           1 NP6       0.2276
     46 H19        -8.9479  -23.4535   12.6019 H           1 NP6       0.0501
     47 H20        -7.9364  -25.5658   12.1228 H           1 NP6       0.0577
     48 H21        -6.7064  -25.9027   10.0574 H           1 NP6       0.0487
     49 H22        -6.4828  -24.0693    8.4788 H           1 NP6       0.0577
     50 H23        -7.4773  -21.9312    8.9448 H           1 NP6       0.0501
@<TRIPOS>BOND
     1     1     2   1
     2     2     3   1
     3     3     4   1
     4     4     5   2
     5     4     6  am
     6     6     7   1
     7     7     8   1
     8     7    16   1
     9     8     9   1
    10     8    10   1
    11    10    11   1
    12    10    12   1
    13    12    13   1
    14    12    15   1
    15    13    14   1
    16    15    16   1
    17    16    17   2
    18    17    18   1
    19    18    19   1
    20    19    20   2
    21    19    21  am
    22    21    22   1
    23    22    23  ar
    24    22    27  ar
    25    23    24  ar
    26    24    25  ar
    27    25    26  ar
    28    26    27  ar
    29     1    28   1
    30     1    29   1
    31     1    30   1
    32     2    31   1
    33     2    32   1
    34     3    33   1
    35     3    34   1
    36     6    35   1
    37     7    36   1
    38     8    37   1
    39     9    38   1
    40    10    39   1
    41    11    40   1
    42    12    41   1
    43    13    42   1
    44    13    43   1
    45    14    44   1
    46    21    45   1
    47    23    46   1
    48    24    47   1
    49    25    48   1
    50    26    49   1
    51    27    50   1
@<TRIPOS>SUBSTRUCTURE
     1  NP6      1

