@<TRIPOS>MOLECULE
2wca_ligand_014
    50    51
SMALL
GAST_HUCK
****
This file was generated by PARSER (from files_GN.cpp)

@<TRIPOS>ATOM
      1 C2        -14.6718  -16.4792    9.6222 C.3         1 NP6      -0.0632
      2 C1        -13.8833  -15.4908   10.5092 C.3         1 NP6      -0.0389
      3 C3        -12.5429  -16.0550   11.0585 C.3         1 NP6       0.0372
      4 C4        -11.5443  -16.2433   10.0256 C.2         1 NP6       0.1785
      5 O1        -11.5834  -17.2688    9.3510 O.2         1 NP6      -0.3969
      6 N1        -10.6131  -15.3207    9.8149 N.am        1 NP6      -0.2639
      7 C5         -9.5822  -15.3677    8.8130 C.3         1 NP6       0.1483
      8 C6         -8.2472  -15.8696    9.4452 C.3         1 NP6       0.1223
      9 O2         -8.3326  -17.2500    9.8145 O.3         1 NP6      -0.3842
     10 C7         -7.0649  -15.6397    8.4618 C.3         1 NP6       0.1187
     11 O3         -5.8197  -15.9757    9.0719 O.3         1 NP6      -0.3859
     12 C8         -7.0426  -14.1400    7.9814 C.3         1 NP6       0.1375
     13 C9         -6.7117  -13.8812    6.4752 C.3         1 NP6       0.0780
     14 O4         -6.4427  -15.0429    5.6933 O.3         1 NP6      -0.3919
     15 O5         -8.2343  -13.3932    8.3492 O.3         1 NP6      -0.2871
     16 C10        -9.4084  -14.0422    8.2282 C.2         1 NP6       0.1893
     17 N2        -10.3646  -13.5133    7.5527 N.2         1 NP6      -0.1541
     18 O6        -10.4791  -12.3374    7.0397 O.3         1 NP6      -0.1506
     19 C11        -9.9380  -11.1419    7.4138 C.2         1 NP6       0.3788
     20 O7        -10.0897  -10.0943    6.5700 O.2         1 NP6      -0.3643
     21 N3         -9.3813  -11.0196    8.6350 N.am        1 NP6      -0.2057
     22 C12        -8.6174  -10.0228    9.1623 C.ar        1 NP6       0.0683
     23 C13        -7.7140   -9.2240    8.4249 C.ar        1 NP6      -0.0414
     24 C14        -6.8993   -8.2739    9.0735 C.ar        1 NP6      -0.0756
     25 C15        -6.9649   -8.1329   10.4700 C.ar        1 NP6      -0.0773
     26 C16        -7.8318   -8.9468   11.2187 C.ar        1 NP6      -0.0756
     27 C17        -8.6409   -9.8912   10.5656 C.ar        1 NP6      -0.0414
     28 H1        -15.6313  -16.0399    9.3380 H           1 NP6       0.0231
     29 H2        -14.8616  -17.4103   10.1615 H           1 NP6       0.0231
     30 H3        -14.1153  -16.7035    8.7107 H           1 NP6       0.0231
     31 H4        -14.5202  -15.2227   11.3555 H           1 NP6       0.0287
     32 H5        -13.6917  -14.5763    9.9421 H           1 NP6       0.0287
     33 H6        -12.7267  -17.0006   11.5762 H           1 NP6       0.0502
     34 H7        -12.1626  -15.3600   11.8112 H           1 NP6       0.0502
     35 H8        -10.6230  -14.5447   10.4024 H           1 NP6       0.1888
     36 H9         -9.8540  -16.0443    7.9961 H           1 NP6       0.0821
     37 H10        -8.0458  -15.3074   10.3630 H           1 NP6       0.0672
     38 H11        -8.4354  -17.7444    8.9744 H           1 NP6       0.2103
     39 H12        -7.2107  -16.3157    7.6184 H           1 NP6       0.0653
     40 H13        -6.0275  -16.6328    9.7665 H           1 NP6       0.2100
     41 H14        -6.2485  -13.6423    8.5544 H           1 NP6       0.0708
     42 H15        -5.8297  -13.2412    6.4074 H           1 NP6       0.0588
     43 H16        -7.5334  -13.3423    5.9946 H           1 NP6       0.0588
     44 H17        -7.3110  -15.4914    5.5970 H           1 NP6       0.2095
     45 H18        -9.5551  -11.7629    9.2330 H           1 NP6       0.2276
     46 H19        -7.6046   -9.3456    7.4165 H           1 NP6       0.0501
     47 H20        -6.2426   -7.7088    8.5377 H           1 NP6       0.0577
     48 H21        -6.3659   -7.4501   10.9469 H           1 NP6       0.0487
     49 H22        -7.8581   -8.8649   12.2374 H           1 NP6       0.0577
     50 H23        -9.2478  -10.4963   11.1298 H           1 NP6       0.0501
@<TRIPOS>BOND
     1     1     2   1
     2     2     3   1
     3     3     4   1
     4     4     5   2
     5     4     6  am
     6     6     7   1
     7     7     8   1
     8     7    16   1
     9     8     9   1
    10     8    10   1
    11    10    11   1
    12    10    12   1
    13    12    13   1
    14    12    15   1
    15    13    14   1
    16    15    16   1
    17    16    17   2
    18    17    18   1
    19    18    19   1
    20    19    20   2
    21    19    21  am
    22    21    22   1
    23    22    23  ar
    24    22    27  ar
    25    23    24  ar
    26    24    25  ar
    27    25    26  ar
    28    26    27  ar
    29     1    28   1
    30     1    29   1
    31     1    30   1
    32     2    31   1
    33     2    32   1
    34     3    33   1
    35     3    34   1
    36     6    35   1
    37     7    36   1
    38     8    37   1
    39     9    38   1
    40    10    39   1
    41    11    40   1
    42    12    41   1
    43    13    42   1
    44    13    43   1
    45    14    44   1
    46    21    45   1
    47    23    46   1
    48    24    47   1
    49    25    48   1
    50    26    49   1
    51    27    50   1
@<TRIPOS>SUBSTRUCTURE
     1  NP6      1

