@<TRIPOS>MOLECULE
2wca_ligand_074
    50    51
SMALL
GAST_HUCK
****
This file was generated by PARSER (from files_GN.cpp)

@<TRIPOS>ATOM
      1 C2         -5.3881  -18.2544    8.5687 C.3         1 NP6      -0.0632
      2 C1         -6.1673  -16.9221    8.4783 C.3         1 NP6      -0.0389
      3 C3         -7.6241  -17.0256    9.0122 C.3         1 NP6       0.0372
      4 C4         -8.0588  -15.8297    9.7082 C.2         1 NP6       0.1785
      5 O1         -8.6673  -15.9650   10.7649 O.2         1 NP6      -0.3969
      6 N1         -7.7894  -14.6272    9.2107 N.am        1 NP6      -0.2639
      7 C5         -8.0559  -13.3565    9.8499 C.3         1 NP6       0.1483
      8 C6         -9.2117  -12.6367    9.0996 C.3         1 NP6       0.1223
      9 O2        -10.4312  -13.3414    9.2898 O.3         1 NP6      -0.3842
     10 C7         -9.3486  -11.1816    9.5918 C.3         1 NP6       0.1187
     11 O3        -10.3782  -10.5134    8.8633 O.3         1 NP6      -0.3859
     12 C8         -7.9806  -10.4315    9.4185 C.3         1 NP6       0.1375
     13 C9         -7.7809   -9.2263   10.3890 C.3         1 NP6       0.0780
     14 O4         -8.5499   -9.3367   11.5950 O.3         1 NP6      -0.3919
     15 O5         -6.7920  -11.2562    9.4663 O.3         1 NP6      -0.2871
     16 C10        -6.8367  -12.5384    9.8828 C.2         1 NP6       0.1893
     17 N2         -5.7142  -13.0764   10.2102 N.2         1 NP6      -0.1541
     18 O6         -4.5945  -12.4694   10.2299 O.3         1 NP6      -0.1506
     19 C11        -3.4005  -13.0154   10.5383 C.2         1 NP6       0.3788
     20 O7         -2.3514  -12.1735   10.4955 O.2         1 NP6      -0.3643
     21 N3         -3.2928  -14.3265   10.8573 N.am        1 NP6      -0.2057
     22 C12        -2.1809  -15.0562   11.1532 C.ar        1 NP6       0.0683
     23 C13        -0.8490  -14.6941   10.8238 C.ar        1 NP6      -0.0414
     24 C14         0.2366  -15.5257   11.1760 C.ar        1 NP6      -0.0756
     25 C15         0.0049  -16.7359   11.8568 C.ar        1 NP6      -0.0773
     26 C16        -1.3108  -17.1171   12.1716 C.ar        1 NP6      -0.0756
     27 C17        -2.3907  -16.2840   11.8179 C.ar        1 NP6      -0.0414
     28 H1         -4.4030  -18.1462    8.1055 H           1 NP6       0.0231
     29 H2         -5.9314  -19.0622    8.0587 H           1 NP6       0.0231
     30 H3         -5.2468  -18.5395    9.6172 H           1 NP6       0.0231
     31 H4         -6.1830  -16.5932    7.4357 H           1 NP6       0.0287
     32 H5         -5.6023  -16.1706    9.0466 H           1 NP6       0.0287
     33 H6         -7.6950  -17.8934    9.6785 H           1 NP6       0.0502
     34 H7         -8.2942  -17.2127    8.1661 H           1 NP6       0.0502
     35 H8         -7.3310  -14.5967    8.3575 H           1 NP6       0.1888
     36 H9         -8.3497  -13.4904   10.8945 H           1 NP6       0.0821
     37 H10        -9.0008  -12.6355    8.0327 H           1 NP6       0.0672
     38 H11       -10.6575  -13.2671   10.2465 H           1 NP6       0.2103
     39 H12        -9.6435  -11.1890   10.6430 H           1 NP6       0.0653
     40 H13       -10.1324   -9.5630    8.8951 H           1 NP6       0.2100
     41 H14        -7.9588  -10.0048    8.4162 H           1 NP6       0.0708
     42 H15        -8.0943   -8.3005    9.8870 H           1 NP6       0.0588
     43 H16        -6.7127   -9.1267   10.6686 H           1 NP6       0.0588
     44 H17        -7.9085   -9.5261   12.3389 H           1 NP6       0.2095
     45 H18        -4.1296  -14.8011   10.9274 H           1 NP6       0.2276
     46 H19        -0.6535  -13.8426   10.2955 H           1 NP6       0.0501
     47 H20         1.1962  -15.2399   10.9275 H           1 NP6       0.0577
     48 H21         0.8029  -17.3313   12.1022 H           1 NP6       0.0487
     49 H22        -1.4643  -17.9985   12.6597 H           1 NP6       0.0577
     50 H23        -3.3290  -16.5930   12.0609 H           1 NP6       0.0501
@<TRIPOS>BOND
     1     1     2   1
     2     2     3   1
     3     3     4   1
     4     4     5   2
     5     4     6  am
     6     6     7   1
     7     7     8   1
     8     7    16   1
     9     8     9   1
    10     8    10   1
    11    10    11   1
    12    10    12   1
    13    12    13   1
    14    12    15   1
    15    13    14   1
    16    15    16   1
    17    16    17   2
    18    17    18   1
    19    18    19   1
    20    19    20   2
    21    19    21  am
    22    21    22   1
    23    22    23  ar
    24    22    27  ar
    25    23    24  ar
    26    24    25  ar
    27    25    26  ar
    28    26    27  ar
    29     1    28   1
    30     1    29   1
    31     1    30   1
    32     2    31   1
    33     2    32   1
    34     3    33   1
    35     3    34   1
    36     6    35   1
    37     7    36   1
    38     8    37   1
    39     9    38   1
    40    10    39   1
    41    11    40   1
    42    12    41   1
    43    13    42   1
    44    13    43   1
    45    14    44   1
    46    21    45   1
    47    23    46   1
    48    24    47   1
    49    25    48   1
    50    26    49   1
    51    27    50   1
@<TRIPOS>SUBSTRUCTURE
     1  NP6      1

