@<TRIPOS>MOLECULE
2wca_ligand_024
    50    51
SMALL
GAST_HUCK
****
This file was generated by PARSER (from files_GN.cpp)

@<TRIPOS>ATOM
      1 C2        -11.8644  -11.9863    4.2254 C.3         1 NP6      -0.0632
      2 C1        -10.9960  -12.7504    5.2567 C.3         1 NP6      -0.0389
      3 C3         -9.5144  -12.2530    5.3161 C.3         1 NP6       0.0372
      4 C4         -9.1042  -11.6725    6.5858 C.2         1 NP6       0.1785
      5 O1         -9.0437  -10.4430    6.6849 O.2         1 NP6      -0.3969
      6 N1         -8.8023  -12.4722    7.6001 N.am        1 NP6      -0.2639
      7 C5         -8.2817  -12.1744    8.9084 C.3         1 NP6       0.1483
      8 C6         -8.8523  -10.9120    9.6422 C.3         1 NP6       0.1223
      9 O2        -10.2398  -11.0886    9.9257 O.3         1 NP6      -0.3842
     10 C7         -8.0425  -10.6713   10.9462 C.3         1 NP6       0.1187
     11 O3         -8.4970   -9.4973   11.6195 O.3         1 NP6      -0.3859
     12 C8         -6.5126  -10.5471   10.6039 C.3         1 NP6       0.1375
     13 C9         -5.5606  -11.1319   11.6947 C.3         1 NP6       0.0780
     14 O4         -4.5904  -10.1692   12.1128 O.3         1 NP6      -0.3919
     15 O5         -6.1537  -11.0721    9.2946 O.3         1 NP6      -0.2871
     16 C10        -6.8211  -12.1705    8.9046 C.2         1 NP6       0.1893
     17 N2         -6.1976  -13.2827    8.7177 N.2         1 NP6      -0.1541
     18 O6         -4.9594  -13.5964    8.6616 O.3         1 NP6      -0.1506
     19 C11        -3.8159  -12.9481    8.2974 C.2         1 NP6       0.3788
     20 O7         -2.6739  -13.6316    8.5218 O.2         1 NP6      -0.3643
     21 N3         -3.8636  -11.7461    7.6788 N.am        1 NP6      -0.2057
     22 C12        -2.8701  -10.9507    7.1643 C.ar        1 NP6       0.0683
     23 C13        -1.4919  -11.2694    7.0638 C.ar        1 NP6      -0.0414
     24 C14        -0.5838  -10.3650    6.4746 C.ar        1 NP6      -0.0756
     25 C15        -1.0338   -9.1273    5.9897 C.ar        1 NP6      -0.0773
     26 C16        -2.3942   -8.7950    6.0829 C.ar        1 NP6      -0.0756
     27 C17        -3.3011   -9.7008    6.6606 C.ar        1 NP6      -0.0414
     28 H1        -12.8710  -12.4093    4.1931 H           1 NP6       0.0231
     29 H2        -11.4254  -12.0650    3.2270 H           1 NP6       0.0231
     30 H3        -11.9349  -10.9318    4.4983 H           1 NP6       0.0231
     31 H4        -11.0063  -13.8077    4.9781 H           1 NP6       0.0287
     32 H5        -11.4822  -12.6757    6.2362 H           1 NP6       0.0287
     33 H6         -9.3388  -11.5298    4.5141 H           1 NP6       0.0502
     34 H7         -8.8522  -13.1005    5.1097 H           1 NP6       0.0502
     35 H8         -8.8790  -13.4224    7.4034 H           1 NP6       0.1888
     36 H9         -8.5784  -13.0278    9.5245 H           1 NP6       0.0821
     37 H10        -8.7577  -10.0180    9.0176 H           1 NP6       0.0672
     38 H11       -10.2901  -11.8120   10.5867 H           1 NP6       0.2103
     39 H12        -8.2168  -11.5207   11.6130 H           1 NP6       0.0653
     40 H13        -7.9663   -9.4693   12.4485 H           1 NP6       0.2100
     41 H14        -6.2955   -9.4766   10.5201 H           1 NP6       0.0708
     42 H15        -5.0195  -12.0005   11.3119 H           1 NP6       0.0588
     43 H16        -6.1005  -11.4484   12.5902 H           1 NP6       0.0588
     44 H17        -5.1149   -9.5029   12.6146 H           1 NP6       0.2095
     45 H18        -4.7575  -11.3911    7.5572 H           1 NP6       0.2276
     46 H19        -1.1269  -12.1555    7.3976 H           1 NP6       0.0501
     47 H20         0.4053  -10.6118    6.4001 H           1 NP6       0.0577
     48 H21        -0.3760   -8.4752    5.5584 H           1 NP6       0.0487
     49 H22        -2.7250   -7.8955    5.7306 H           1 NP6       0.0577
     50 H23        -4.2901   -9.4360    6.7159 H           1 NP6       0.0501
@<TRIPOS>BOND
     1     1     2   1
     2     2     3   1
     3     3     4   1
     4     4     5   2
     5     4     6  am
     6     6     7   1
     7     7     8   1
     8     7    16   1
     9     8     9   1
    10     8    10   1
    11    10    11   1
    12    10    12   1
    13    12    13   1
    14    12    15   1
    15    13    14   1
    16    15    16   1
    17    16    17   2
    18    17    18   1
    19    18    19   1
    20    19    20   2
    21    19    21  am
    22    21    22   1
    23    22    23  ar
    24    22    27  ar
    25    23    24  ar
    26    24    25  ar
    27    25    26  ar
    28    26    27  ar
    29     1    28   1
    30     1    29   1
    31     1    30   1
    32     2    31   1
    33     2    32   1
    34     3    33   1
    35     3    34   1
    36     6    35   1
    37     7    36   1
    38     8    37   1
    39     9    38   1
    40    10    39   1
    41    11    40   1
    42    12    41   1
    43    13    42   1
    44    13    43   1
    45    14    44   1
    46    21    45   1
    47    23    46   1
    48    24    47   1
    49    25    48   1
    50    26    49   1
    51    27    50   1
@<TRIPOS>SUBSTRUCTURE
     1  NP6      1

