@<TRIPOS>MOLECULE
2wca_ligand_037
    50    51
SMALL
GAST_HUCK
****
This file was generated by PARSER (from files_GN.cpp)

@<TRIPOS>ATOM
      1 C2        -10.7191  -14.0694    8.4494 C.3         1 NP6      -0.0632
      2 C1        -11.2709  -15.2227    7.5786 C.3         1 NP6      -0.0389
      3 C3        -11.4843  -16.5776    8.3058 C.3         1 NP6       0.0372
      4 C4        -10.3422  -17.0152    9.0870 C.2         1 NP6       0.1785
      5 O1        -10.2532  -16.6323   10.2530 O.2         1 NP6      -0.3969
      6 N1         -9.4743  -17.8975    8.5925 N.am        1 NP6      -0.2639
      7 C5         -8.3063  -18.4135    9.2606 C.3         1 NP6       0.1483
      8 C6         -7.1205  -18.4128    8.2549 C.3         1 NP6       0.1223
      9 O2         -6.7778  -17.0728    7.8957 O.3         1 NP6      -0.3842
     10 C7         -5.8786  -19.1137    8.8671 C.3         1 NP6       0.1187
     11 O3         -4.8411  -19.1608    7.8804 O.3         1 NP6      -0.3859
     12 C8         -6.2926  -20.5393    9.3421 C.3         1 NP6       0.1375
     13 C9         -5.1820  -21.2431   10.1641 C.3         1 NP6       0.0780
     14 O4         -5.5587  -22.5853   10.4708 O.3         1 NP6      -0.3919
     15 O5         -7.4698  -20.4990   10.1897 O.3         1 NP6      -0.2871
     16 C10        -8.5272  -19.7453    9.8365 C.2         1 NP6       0.1893
     17 N2         -9.5695  -20.0344   10.5280 N.2         1 NP6      -0.1541
     18 O6        -10.6498  -19.3682   10.5534 O.3         1 NP6      -0.1506
     19 C11       -11.5970  -19.3070   11.5304 C.2         1 NP6       0.3788
     20 O7        -12.7252  -18.6342   11.1979 O.2         1 NP6      -0.3643
     21 N3        -11.5553  -19.7498   12.8127 N.am        1 NP6      -0.2057
     22 C12       -10.4998  -20.2196   13.5339 C.ar        1 NP6       0.0683
     23 C13       -10.7614  -21.1651   14.5531 C.ar        1 NP6      -0.0414
     24 C14        -9.7229  -21.6704   15.3563 C.ar        1 NP6      -0.0756
     25 C15        -8.3972  -21.2373   15.1536 C.ar        1 NP6      -0.0773
     26 C16        -8.1293  -20.2581   14.1795 C.ar        1 NP6      -0.0756
     27 C17        -9.1769  -19.7373   13.3964 C.ar        1 NP6      -0.0414
     28 H1        -10.7487  -13.1414    7.8851 H           1 NP6       0.0231
     29 H2         -9.6807  -14.2665    8.7294 H           1 NP6       0.0231
     30 H3        -11.3145  -13.9556    9.3586 H           1 NP6       0.0231
     31 H4        -10.6002  -15.3727    6.7323 H           1 NP6       0.0287
     32 H5        -12.2396  -14.8905    7.1810 H           1 NP6       0.0287
     33 H6        -11.7228  -17.3278    7.5418 H           1 NP6       0.0502
     34 H7        -12.3606  -16.5033    8.9599 H           1 NP6       0.0502
     35 H8         -9.6435  -18.2244    7.6953 H           1 NP6       0.1888
     36 H9         -8.0177  -17.7767   10.1047 H           1 NP6       0.0821
     37 H10        -7.4138  -18.9408    7.3400 H           1 NP6       0.0672
     38 H11        -7.4690  -16.8004    7.2557 H           1 NP6       0.2103
     39 H12        -5.5220  -18.5331    9.7194 H           1 NP6       0.0653
     40 H13        -4.0330  -19.4220    8.3682 H           1 NP6       0.2100
     41 H14        -6.5147  -21.1520    8.4648 H           1 NP6       0.0708
     42 H15        -5.0136  -20.7102   11.1003 H           1 NP6       0.0588
     43 H16        -4.2399  -21.2692    9.6077 H           1 NP6       0.0588
     44 H17        -5.4208  -23.0692    9.6289 H           1 NP6       0.2095
     45 H18       -12.3918  -19.6803   13.3083 H           1 NP6       0.2276
     46 H19       -11.7213  -21.4843   14.7237 H           1 NP6       0.0501
     47 H20        -9.9258  -22.3652   16.0799 H           1 NP6       0.0577
     48 H21        -7.6411  -21.6121   15.7252 H           1 NP6       0.0487
     49 H22        -7.1708  -19.9220   14.0485 H           1 NP6       0.0577
     50 H23        -8.9640  -18.9802   12.7436 H           1 NP6       0.0501
@<TRIPOS>BOND
     1     1     2   1
     2     2     3   1
     3     3     4   1
     4     4     5   2
     5     4     6  am
     6     6     7   1
     7     7     8   1
     8     7    16   1
     9     8     9   1
    10     8    10   1
    11    10    11   1
    12    10    12   1
    13    12    13   1
    14    12    15   1
    15    13    14   1
    16    15    16   1
    17    16    17   2
    18    17    18   1
    19    18    19   1
    20    19    20   2
    21    19    21  am
    22    21    22   1
    23    22    23  ar
    24    22    27  ar
    25    23    24  ar
    26    24    25  ar
    27    25    26  ar
    28    26    27  ar
    29     1    28   1
    30     1    29   1
    31     1    30   1
    32     2    31   1
    33     2    32   1
    34     3    33   1
    35     3    34   1
    36     6    35   1
    37     7    36   1
    38     8    37   1
    39     9    38   1
    40    10    39   1
    41    11    40   1
    42    12    41   1
    43    13    42   1
    44    13    43   1
    45    14    44   1
    46    21    45   1
    47    23    46   1
    48    24    47   1
    49    25    48   1
    50    26    49   1
    51    27    50   1
@<TRIPOS>SUBSTRUCTURE
     1  NP6      1

