@<TRIPOS>MOLECULE
2wca_ligand_056
    50    51
SMALL
GAST_HUCK
****
This file was generated by PARSER (from files_GN.cpp)

@<TRIPOS>ATOM
      1 C2        -11.8730  -12.0841    4.4690 C.3         1 NP6      -0.0632
      2 C1        -10.8803  -12.8445    5.3840 C.3         1 NP6      -0.0389
      3 C3         -9.3955  -12.3853    5.2274 C.3         1 NP6       0.0372
      4 C4         -8.9198  -11.5731    6.3393 C.2         1 NP6       0.1785
      5 O1         -9.3983  -10.4542    6.4868 O.2         1 NP6      -0.3969
      6 N1         -8.0497  -12.1052    7.1951 N.am        1 NP6      -0.2639
      7 C5         -7.5039  -11.6237    8.4356 C.3         1 NP6       0.1483
      8 C6         -7.9569  -10.2161    8.9421 C.3         1 NP6       0.1223
      9 O2         -9.3596  -10.2325    9.1791 O.3         1 NP6      -0.3842
     10 C7         -7.2166   -9.7765   10.2466 C.3         1 NP6       0.1187
     11 O3         -7.5431   -8.4195   10.5793 O.3         1 NP6      -0.3859
     12 C8         -5.6833   -9.9765   10.0462 C.3         1 NP6       0.1375
     13 C9         -4.8930   -9.6969   11.3409 C.3         1 NP6       0.0780
     14 O4         -4.7947   -8.2877   11.5676 O.3         1 NP6      -0.3919
     15 O5         -5.4053  -11.3289    9.6221 O.3         1 NP6      -0.2871
     16 C10        -6.0414  -11.6815    8.4849 C.2         1 NP6       0.1893
     17 N2         -5.3465  -12.1356    7.5076 N.2         1 NP6      -0.1541
     18 O6         -4.0714  -12.2506    7.5335 O.3         1 NP6      -0.1506
     19 C11        -3.3055  -12.8618    6.5957 C.2         1 NP6       0.3788
     20 O7         -1.9819  -12.9056    6.8723 O.2         1 NP6      -0.3643
     21 N3         -3.8633  -13.4333    5.4993 N.am        1 NP6      -0.2057
     22 C12        -3.2977  -14.1031    4.4525 C.ar        1 NP6       0.0683
     23 C13        -1.9208  -14.1068    4.1260 C.ar        1 NP6      -0.0414
     24 C14        -1.4490  -14.8109    3.0027 C.ar        1 NP6      -0.0756
     25 C15        -2.3489  -15.5049    2.1755 C.ar        1 NP6      -0.0773
     26 C16        -3.7224  -15.4917    2.4703 C.ar        1 NP6      -0.0756
     27 C17        -4.1920  -14.7877    3.5950 C.ar        1 NP6      -0.0414
     28 H1        -12.8776  -12.4890    4.5975 H           1 NP6       0.0231
     29 H2        -11.5862  -12.2015    3.4210 H           1 NP6       0.0231
     30 H3        -11.8693  -11.0285    4.7321 H           1 NP6       0.0231
     31 H4        -10.9408  -13.9153    5.1474 H           1 NP6       0.0287
     32 H5        -11.2042  -12.7338    6.4261 H           1 NP6       0.0287
     33 H6         -9.2731  -11.8319    4.2916 H           1 NP6       0.0502
     34 H7         -8.7675  -13.2764    5.1178 H           1 NP6       0.0502
     35 H8         -7.7515  -12.9979    6.9723 H           1 NP6       0.1888
     36 H9         -7.8460  -12.3398    9.1900 H           1 NP6       0.0821
     37 H10        -7.7528   -9.4628    8.1795 H           1 NP6       0.0672
     38 H11        -9.6477   -9.3079    9.0228 H           1 NP6       0.2103
     39 H12        -7.5498  -10.4058   11.0745 H           1 NP6       0.0653
     40 H13        -7.2609   -7.8806    9.8102 H           1 NP6       0.2100
     41 H14        -5.3178   -9.2822    9.2799 H           1 NP6       0.0708
     42 H15        -3.8747  -10.0903   11.2630 H           1 NP6       0.0588
     43 H16        -5.3829  -10.1756   12.1958 H           1 NP6       0.0588
     44 H17        -5.1342   -8.1506   12.4763 H           1 NP6       0.2095
     45 H18        -4.8272  -13.3648    5.4565 H           1 NP6       0.2276
     46 H19        -1.2471  -13.5813    4.6832 H           1 NP6       0.0501
     47 H20        -0.4506  -14.8104    2.7803 H           1 NP6       0.0577
     48 H21        -2.0050  -16.0157    1.3582 H           1 NP6       0.0487
     49 H22        -4.3792  -15.9918    1.8675 H           1 NP6       0.0577
     50 H23        -5.1957  -14.7879    3.7876 H           1 NP6       0.0501
@<TRIPOS>BOND
     1     1     2   1
     2     2     3   1
     3     3     4   1
     4     4     5   2
     5     4     6  am
     6     6     7   1
     7     7     8   1
     8     7    16   1
     9     8     9   1
    10     8    10   1
    11    10    11   1
    12    10    12   1
    13    12    13   1
    14    12    15   1
    15    13    14   1
    16    15    16   1
    17    16    17   2
    18    17    18   1
    19    18    19   1
    20    19    20   2
    21    19    21  am
    22    21    22   1
    23    22    23  ar
    24    22    27  ar
    25    23    24  ar
    26    24    25  ar
    27    25    26  ar
    28    26    27  ar
    29     1    28   1
    30     1    29   1
    31     1    30   1
    32     2    31   1
    33     2    32   1
    34     3    33   1
    35     3    34   1
    36     6    35   1
    37     7    36   1
    38     8    37   1
    39     9    38   1
    40    10    39   1
    41    11    40   1
    42    12    41   1
    43    13    42   1
    44    13    43   1
    45    14    44   1
    46    21    45   1
    47    23    46   1
    48    24    47   1
    49    25    48   1
    50    26    49   1
    51    27    50   1
@<TRIPOS>SUBSTRUCTURE
     1  NP6      1

