@<TRIPOS>MOLECULE
2wca_ligand_036
    50    51
SMALL
GAST_HUCK
****
This file was generated by PARSER (from files_GN.cpp)

@<TRIPOS>ATOM
      1 C2        -13.8399  -11.3822    2.6065 C.3         1 NP6      -0.0632
      2 C1        -12.5797  -10.5142    2.7967 C.3         1 NP6      -0.0389
      3 C3        -11.2961  -11.3594    3.0385 C.3         1 NP6       0.0372
      4 C4        -11.0965  -11.9052    4.3724 C.2         1 NP6       0.1785
      5 O1        -11.6967  -11.4311    5.3274 O.2         1 NP6      -0.3969
      6 N1        -10.1368  -12.8084    4.5463 N.am        1 NP6      -0.2639
      7 C5         -9.6395  -13.3744    5.7718 C.3         1 NP6       0.1483
      8 C6        -10.6773  -14.2931    6.4813 C.3         1 NP6       0.1223
      9 O2        -11.0425  -15.3950    5.6442 O.3         1 NP6      -0.3842
     10 C7        -10.1089  -14.8600    7.8155 C.3         1 NP6       0.1187
     11 O3        -11.1256  -15.5726    8.5198 O.3         1 NP6      -0.3859
     12 C8         -9.5089  -13.6986    8.6731 C.3         1 NP6       0.1375
     13 C9         -8.7529  -14.1994    9.9334 C.3         1 NP6       0.0780
     14 O4         -9.5912  -14.9279   10.8249 O.3         1 NP6      -0.3919
     15 O5         -8.5704  -12.9057    7.8941 O.3         1 NP6      -0.2871
     16 C10        -9.0824  -12.4246    6.7428 C.2         1 NP6       0.1893
     17 N2         -9.1056  -11.1515    6.5567 N.2         1 NP6      -0.1541
     18 O6         -8.5436  -10.1917    7.1996 O.3         1 NP6      -0.1506
     19 C11        -7.2474  -10.0640    7.5898 C.2         1 NP6       0.3788
     20 O7         -6.9525   -8.9749    8.3312 O.2         1 NP6      -0.3643
     21 N3         -6.3255  -10.9353    7.1270 N.am        1 NP6      -0.2057
     22 C12        -4.9682  -10.9385    7.2310 C.ar        1 NP6       0.0683
     23 C13        -4.3188  -12.1186    6.7995 C.ar        1 NP6      -0.0414
     24 C14        -2.9166  -12.2308    6.8231 C.ar        1 NP6      -0.0756
     25 C15        -2.1325  -11.1514    7.2640 C.ar        1 NP6      -0.0773
     26 C16        -2.7549   -9.9635    7.6857 C.ar        1 NP6      -0.0756
     27 C17        -4.1602   -9.8565    7.6595 C.ar        1 NP6      -0.0414
     28 H1        -14.7126  -10.7414    2.4756 H           1 NP6       0.0231
     29 H2        -13.9981  -12.0249    3.4718 H           1 NP6       0.0231
     30 H3        -13.7203  -12.0021    1.7177 H           1 NP6       0.0231
     31 H4        -12.7398   -9.8153    3.6106 H           1 NP6       0.0287
     32 H5        -12.4433   -9.9230    1.8828 H           1 NP6       0.0287
     33 H6        -10.4336  -10.7242    2.8290 H           1 NP6       0.0502
     34 H7        -11.2742  -12.1824    2.3148 H           1 NP6       0.0502
     35 H8         -9.7086  -13.1325    3.7399 H           1 NP6       0.1888
     36 H9         -8.8030  -14.0084    5.4780 H           1 NP6       0.0821
     37 H10       -11.5859  -13.7253    6.6924 H           1 NP6       0.0672
     38 H11       -11.5014  -15.0050    4.8684 H           1 NP6       0.2103
     39 H12        -9.3106  -15.5676    7.5832 H           1 NP6       0.0653
     40 H13       -11.8304  -14.9180    8.6982 H           1 NP6       0.2100
     41 H14       -10.3336  -13.0540    9.0150 H           1 NP6       0.0708
     42 H15        -8.3498  -13.3394   10.4756 H           1 NP6       0.0588
     43 H16        -7.9142  -14.8370    9.6386 H           1 NP6       0.0588
     44 H17       -10.2570  -14.2851   11.1238 H           1 NP6       0.2095
     45 H18        -6.6874  -11.6715    6.6206 H           1 NP6       0.2276
     46 H19        -4.8673  -12.9135    6.4630 H           1 NP6       0.0501
     47 H20        -2.4661  -13.0979    6.5110 H           1 NP6       0.0577
     48 H21        -1.1139  -11.2285    7.2709 H           1 NP6       0.0487
     49 H22        -2.1823   -9.1746    7.9941 H           1 NP6       0.0577
     50 H23        -4.5737   -8.9624    7.9349 H           1 NP6       0.0501
@<TRIPOS>BOND
     1     1     2   1
     2     2     3   1
     3     3     4   1
     4     4     5   2
     5     4     6  am
     6     6     7   1
     7     7     8   1
     8     7    16   1
     9     8     9   1
    10     8    10   1
    11    10    11   1
    12    10    12   1
    13    12    13   1
    14    12    15   1
    15    13    14   1
    16    15    16   1
    17    16    17   2
    18    17    18   1
    19    18    19   1
    20    19    20   2
    21    19    21  am
    22    21    22   1
    23    22    23  ar
    24    22    27  ar
    25    23    24  ar
    26    24    25  ar
    27    25    26  ar
    28    26    27  ar
    29     1    28   1
    30     1    29   1
    31     1    30   1
    32     2    31   1
    33     2    32   1
    34     3    33   1
    35     3    34   1
    36     6    35   1
    37     7    36   1
    38     8    37   1
    39     9    38   1
    40    10    39   1
    41    11    40   1
    42    12    41   1
    43    13    42   1
    44    13    43   1
    45    14    44   1
    46    21    45   1
    47    23    46   1
    48    24    47   1
    49    25    48   1
    50    26    49   1
    51    27    50   1
@<TRIPOS>SUBSTRUCTURE
     1  NP6      1

