@<TRIPOS>MOLECULE
2wca_ligand_084
    50    51
SMALL
GAST_HUCK
****
This file was generated by PARSER (from files_GN.cpp)

@<TRIPOS>ATOM
      1 C2         -8.5175  -10.1587    9.9883 C.3         1 NP6      -0.0632
      2 C1         -7.2455   -9.9940   10.8429 C.3         1 NP6      -0.0389
      3 C3         -6.3656  -11.2756   10.8738 C.3         1 NP6       0.0372
      4 C4         -5.0733  -11.1754   11.5375 C.2         1 NP6       0.1785
      5 O1         -4.2686  -12.0757   11.3285 O.2         1 NP6      -0.3969
      6 N1         -4.7774  -10.1837   12.3744 N.am        1 NP6      -0.2639
      7 C5         -3.5391   -9.9318   13.0670 C.3         1 NP6       0.1483
      8 C6         -2.3463   -9.7222   12.0837 C.3         1 NP6       0.1223
      9 O2         -2.5874   -8.5879   11.2494 O.3         1 NP6      -0.3842
     10 C7         -1.0020   -9.5321   12.8475 C.3         1 NP6       0.1187
     11 O3          0.0883   -9.5649   11.9272 O.3         1 NP6      -0.3859
     12 C8         -0.8576  -10.6607   13.9144 C.3         1 NP6       0.1375
     13 C9          0.4201  -10.5412   14.7799 C.3         1 NP6       0.0780
     14 O4          0.2208   -9.6673   15.8910 O.3         1 NP6      -0.3919
     15 O5         -2.0198  -10.6499   14.7874 O.3         1 NP6      -0.2871
     16 C10        -3.1723  -10.8694   14.1264 C.2         1 NP6       0.1893
     17 N2         -3.8304  -11.9444   14.3844 N.2         1 NP6      -0.1541
     18 O6         -3.5640  -12.6328   15.4234 O.3         1 NP6      -0.1506
     19 C11        -3.3424  -13.9700   15.4816 C.2         1 NP6       0.3788
     20 O7         -3.1777  -14.4778   16.7241 O.2         1 NP6      -0.3643
     21 N3         -3.1651  -14.6844   14.3429 N.am        1 NP6      -0.2057
     22 C12        -2.6642  -15.9448   14.1824 C.ar        1 NP6       0.0683
     23 C13        -1.8831  -16.6457   15.1367 C.ar        1 NP6      -0.0414
     24 C14        -1.3371  -17.9073   14.8356 C.ar        1 NP6      -0.0756
     25 C15        -1.5597  -18.4886   13.5749 C.ar        1 NP6      -0.0773
     26 C16        -2.3188  -17.7994   12.6129 C.ar        1 NP6      -0.0756
     27 C17        -2.8565  -16.5351   12.9133 C.ar        1 NP6      -0.0414
     28 H1         -9.0848   -9.2306    9.9992 H           1 NP6       0.0231
     29 H2         -9.1415  -10.9566   10.3924 H           1 NP6       0.0231
     30 H3         -8.2541  -10.3964    8.9579 H           1 NP6       0.0231
     31 H4         -7.5429   -9.7343   11.8628 H           1 NP6       0.0287
     32 H5         -6.6577   -9.1654   10.4372 H           1 NP6       0.0287
     33 H6         -6.1801  -11.5817    9.8383 H           1 NP6       0.0502
     34 H7         -6.9305  -12.0791   11.3609 H           1 NP6       0.0502
     35 H8         -5.4833   -9.5382   12.5490 H           1 NP6       0.1888
     36 H9         -3.7059   -8.9775   13.5745 H           1 NP6       0.0821
     37 H10        -2.2523  -10.5970   11.4398 H           1 NP6       0.0672
     38 H11        -3.3562   -8.8342   10.6906 H           1 NP6       0.2103
     39 H12        -0.9953   -8.5600   13.3485 H           1 NP6       0.0653
     40 H13         0.0533  -10.4603   11.5262 H           1 NP6       0.2100
     41 H14        -0.7965  -11.6281   13.3963 H           1 NP6       0.0708
     42 H15         1.2484  -10.1660   14.1750 H           1 NP6       0.0588
     43 H16         0.6994  -11.5290   15.1599 H           1 NP6       0.0588
     44 H17        -0.4346  -10.1412   16.4552 H           1 NP6       0.2095
     45 H18        -3.3926  -14.2191   13.5193 H           1 NP6       0.2276
     46 H19        -1.6606  -16.2426   16.0429 H           1 NP6       0.0501
     47 H20        -0.7612  -18.3960   15.5305 H           1 NP6       0.0577
     48 H21        -1.1508  -19.4008   13.3527 H           1 NP6       0.0487
     49 H22        -2.4658  -18.2138   11.6882 H           1 NP6       0.0577
     50 H23        -3.3922  -16.0439   12.1873 H           1 NP6       0.0501
@<TRIPOS>BOND
     1     1     2   1
     2     2     3   1
     3     3     4   1
     4     4     5   2
     5     4     6  am
     6     6     7   1
     7     7     8   1
     8     7    16   1
     9     8     9   1
    10     8    10   1
    11    10    11   1
    12    10    12   1
    13    12    13   1
    14    12    15   1
    15    13    14   1
    16    15    16   1
    17    16    17   2
    18    17    18   1
    19    18    19   1
    20    19    20   2
    21    19    21  am
    22    21    22   1
    23    22    23  ar
    24    22    27  ar
    25    23    24  ar
    26    24    25  ar
    27    25    26  ar
    28    26    27  ar
    29     1    28   1
    30     1    29   1
    31     1    30   1
    32     2    31   1
    33     2    32   1
    34     3    33   1
    35     3    34   1
    36     6    35   1
    37     7    36   1
    38     8    37   1
    39     9    38   1
    40    10    39   1
    41    11    40   1
    42    12    41   1
    43    13    42   1
    44    13    43   1
    45    14    44   1
    46    21    45   1
    47    23    46   1
    48    24    47   1
    49    25    48   1
    50    26    49   1
    51    27    50   1
@<TRIPOS>SUBSTRUCTURE
     1  NP6      1

