@<TRIPOS>MOLECULE
2wca_ligand_012
    50    51
SMALL
GAST_HUCK
****
This file was generated by PARSER (from files_GN.cpp)

@<TRIPOS>ATOM
      1 C2         -5.9965  -17.0610    7.0414 C.3         1 NP6      -0.0632
      2 C1         -6.1160  -16.9168    8.5796 C.3         1 NP6      -0.0389
      3 C3         -7.5946  -16.8158    9.0925 C.3         1 NP6       0.0372
      4 C4         -7.8999  -15.6104    9.8405 C.2         1 NP6       0.1785
      5 O1         -8.5963  -15.6869   10.8460 O.2         1 NP6      -0.3969
      6 N1         -7.5172  -14.4347    9.3568 N.am        1 NP6      -0.2639
      7 C5         -7.8453  -13.1359    9.8714 C.3         1 NP6       0.1483
      8 C6         -9.0523  -12.5628    9.0538 C.3         1 NP6       0.1223
      9 O2        -10.2550  -13.2530    9.3897 O.3         1 NP6      -0.3842
     10 C7         -9.2120  -11.0317    9.2910 C.3         1 NP6       0.1187
     11 O3        -10.2139  -10.5159    8.4034 O.3         1 NP6      -0.3859
     12 C8         -7.8263  -10.2944    9.1132 C.3         1 NP6       0.1375
     13 C9         -7.4844   -9.2894   10.2531 C.3         1 NP6       0.0780
     14 O4         -7.9023   -9.7866   11.5277 O.3         1 NP6      -0.3919
     15 O5         -6.7306  -11.2175    8.8924 O.3         1 NP6      -0.2871
     16 C10        -6.6967  -12.2408    9.7704 C.2         1 NP6       0.1893
     17 N2         -5.7097  -12.3103   10.5913 N.2         1 NP6      -0.1541
     18 O6         -4.7239  -11.5076   10.5023 O.3         1 NP6      -0.1506
     19 C11        -3.7645  -11.1751   11.3899 C.2         1 NP6       0.3788
     20 O7         -2.8398  -10.3080   10.9282 O.2         1 NP6      -0.3643
     21 N3         -3.7410  -11.6494   12.6575 N.am        1 NP6      -0.2057
     22 C12        -2.9132  -11.2517   13.6733 C.ar        1 NP6       0.0683
     23 C13        -2.4808  -12.2099   14.6149 C.ar        1 NP6      -0.0414
     24 C14        -1.6569  -11.8436   15.6990 C.ar        1 NP6      -0.0756
     25 C15        -1.2958  -10.4962   15.8836 C.ar        1 NP6      -0.0773
     26 C16        -1.7410   -9.5227   14.9740 C.ar        1 NP6      -0.0756
     27 C17        -2.5578   -9.8950   13.8900 C.ar        1 NP6      -0.0414
     28 H1         -4.9390  -17.1151    6.7619 H           1 NP6       0.0231
     29 H2         -6.4504  -16.1950    6.5495 H           1 NP6       0.0231
     30 H3         -6.4992  -17.9731    6.7155 H           1 NP6       0.0231
     31 H4         -5.5311  -16.0379    8.8966 H           1 NP6       0.0287
     32 H5         -5.6402  -17.7985    9.0447 H           1 NP6       0.0287
     33 H6         -7.8024  -17.6864    9.7139 H           1 NP6       0.0502
     34 H7         -8.2876  -16.8615    8.2527 H           1 NP6       0.0502
     35 H8         -7.0157  -14.4355    8.5209 H           1 NP6       0.1888
     36 H9         -8.1496  -13.1575   10.9263 H           1 NP6       0.0821
     37 H10        -8.8756  -12.7206    7.9855 H           1 NP6       0.0672
     38 H11       -10.4005  -13.0727   10.3467 H           1 NP6       0.2103
     39 H12        -9.5949  -10.8940   10.3168 H           1 NP6       0.0653
     40 H13       -10.1537   -9.5430    8.5279 H           1 NP6       0.2100
     41 H14        -7.8774   -9.7053    8.1972 H           1 NP6       0.0708
     42 H15        -7.9758   -8.3275   10.0826 H           1 NP6       0.0588
     43 H16        -6.4038   -9.1253   10.2795 H           1 NP6       0.0588
     44 H17        -7.3241   -9.3413   12.2116 H           1 NP6       0.2095
     45 H18        -4.3525  -12.3687   12.8600 H           1 NP6       0.2276
     46 H19        -2.7373  -13.1916   14.4983 H           1 NP6       0.0501
     47 H20        -1.3452  -12.5507   16.3718 H           1 NP6       0.0577
     48 H21        -0.7135  -10.2236   16.6820 H           1 NP6       0.0487
     49 H22        -1.4859   -8.5380   15.1193 H           1 NP6       0.0577
     50 H23        -2.9033   -9.1562   13.2730 H           1 NP6       0.0501
@<TRIPOS>BOND
     1     1     2   1
     2     2     3   1
     3     3     4   1
     4     4     5   2
     5     4     6  am
     6     6     7   1
     7     7     8   1
     8     7    16   1
     9     8     9   1
    10     8    10   1
    11    10    11   1
    12    10    12   1
    13    12    13   1
    14    12    15   1
    15    13    14   1
    16    15    16   1
    17    16    17   2
    18    17    18   1
    19    18    19   1
    20    19    20   2
    21    19    21  am
    22    21    22   1
    23    22    23  ar
    24    22    27  ar
    25    23    24  ar
    26    24    25  ar
    27    25    26  ar
    28    26    27  ar
    29     1    28   1
    30     1    29   1
    31     1    30   1
    32     2    31   1
    33     2    32   1
    34     3    33   1
    35     3    34   1
    36     6    35   1
    37     7    36   1
    38     8    37   1
    39     9    38   1
    40    10    39   1
    41    11    40   1
    42    12    41   1
    43    13    42   1
    44    13    43   1
    45    14    44   1
    46    21    45   1
    47    23    46   1
    48    24    47   1
    49    25    48   1
    50    26    49   1
    51    27    50   1
@<TRIPOS>SUBSTRUCTURE
     1  NP6      1

