@<TRIPOS>MOLECULE
2wca_ligand_083
    50    51
SMALL
GAST_HUCK
****
This file was generated by PARSER (from files_GN.cpp)

@<TRIPOS>ATOM
      1 C2         -7.9276   -8.3222   10.1415 C.3         1 NP6      -0.0632
      2 C1         -6.9923   -8.6923    8.9682 C.3         1 NP6      -0.0389
      3 C3         -6.5685  -10.1896    8.8896 C.3         1 NP6       0.0372
      4 C4         -6.1556  -10.7684   10.1581 C.2         1 NP6       0.1785
      5 O1         -6.9545  -11.4798   10.7717 O.2         1 NP6      -0.3969
      6 N1         -4.9614  -10.4841   10.6689 N.am        1 NP6      -0.2639
      7 C5         -4.4873  -10.8757   11.9729 C.3         1 NP6       0.1483
      8 C6         -3.4193   -9.8653   12.4813 C.3         1 NP6       0.1223
      9 O2         -3.9243   -8.5342   12.4976 O.3         1 NP6      -0.3842
     10 C7         -2.9402  -10.2776   13.8994 C.3         1 NP6       0.1187
     11 O3         -1.9183   -9.3856   14.3503 O.3         1 NP6      -0.3859
     12 C8         -2.4296  -11.7541   13.8396 C.3         1 NP6       0.1375
     13 C9         -2.1056  -12.3822   15.2240 C.3         1 NP6       0.0780
     14 O4         -1.5948  -11.4335   16.1602 O.3         1 NP6      -0.3919
     15 O5         -3.4106  -12.6310   13.2338 O.3         1 NP6      -0.2871
     16 C10        -3.9293  -12.2220   12.0625 C.2         1 NP6       0.1893
     17 N2         -4.0639  -13.0766   11.1186 N.2         1 NP6      -0.1541
     18 O6         -3.6636  -14.2838   11.1747 O.3         1 NP6      -0.1506
     19 C11        -3.9516  -15.2358   10.2480 C.2         1 NP6       0.3788
     20 O7         -3.4069  -16.4556   10.4585 O.2         1 NP6      -0.3643
     21 N3         -4.7348  -14.9419    9.1813 N.am        1 NP6      -0.2057
     22 C12        -5.1794  -15.7594    8.1783 C.ar        1 NP6       0.0683
     23 C13        -5.5323  -15.1321    6.9579 C.ar        1 NP6      -0.0414
     24 C14        -6.0248  -15.8858    5.8790 C.ar        1 NP6      -0.0756
     25 C15        -6.1912  -17.2754    6.0117 C.ar        1 NP6      -0.0773
     26 C16        -5.8742  -17.9084    7.2242 C.ar        1 NP6      -0.0756
     27 C17        -5.3793  -17.1531    8.3055 C.ar        1 NP6      -0.0414
     28 H1         -8.2885   -7.3014   10.0197 H           1 NP6       0.0231
     29 H2         -7.3884   -8.3836   11.0861 H           1 NP6       0.0231
     30 H3         -8.7852   -8.9948   10.1741 H           1 NP6       0.0231
     31 H4         -6.0938   -8.0669    9.0186 H           1 NP6       0.0287
     32 H5         -7.5040   -8.4482    8.0310 H           1 NP6       0.0287
     33 H6         -5.7358  -10.2888    8.1808 H           1 NP6       0.0502
     34 H7         -7.4079  -10.7634    8.4710 H           1 NP6       0.0502
     35 H8         -4.3969   -9.8898   10.1471 H           1 NP6       0.1888
     36 H9         -5.3363  -10.8201   12.6609 H           1 NP6       0.0821
     37 H10        -2.5634   -9.8679   11.8025 H           1 NP6       0.0672
     38 H11        -4.6821   -8.5374   13.1169 H           1 NP6       0.2103
     39 H12        -3.7823  -10.2296   14.5988 H           1 NP6       0.0653
     40 H13        -2.2912   -8.9520   15.1448 H           1 NP6       0.2100
     41 H14        -1.5104  -11.7827   13.2342 H           1 NP6       0.0708
     42 H15        -1.3570  -13.1787   15.1052 H           1 NP6       0.0588
     43 H16        -3.0104  -12.8340   15.6476 H           1 NP6       0.0588
     44 H17        -1.4584  -11.9549   16.9852 H           1 NP6       0.2095
     45 H18        -4.9814  -14.0051    9.0956 H           1 NP6       0.2276
     46 H19        -5.4191  -14.1215    6.8467 H           1 NP6       0.0501
     47 H20        -6.2664  -15.4262    5.0008 H           1 NP6       0.0577
     48 H21        -6.5587  -17.8206    5.2346 H           1 NP6       0.0487
     49 H22        -6.0164  -18.9123    7.3330 H           1 NP6       0.0577
     50 H23        -5.1979  -17.6316    9.1883 H           1 NP6       0.0501
@<TRIPOS>BOND
     1     1     2   1
     2     2     3   1
     3     3     4   1
     4     4     5   2
     5     4     6  am
     6     6     7   1
     7     7     8   1
     8     7    16   1
     9     8     9   1
    10     8    10   1
    11    10    11   1
    12    10    12   1
    13    12    13   1
    14    12    15   1
    15    13    14   1
    16    15    16   1
    17    16    17   2
    18    17    18   1
    19    18    19   1
    20    19    20   2
    21    19    21  am
    22    21    22   1
    23    22    23  ar
    24    22    27  ar
    25    23    24  ar
    26    24    25  ar
    27    25    26  ar
    28    26    27  ar
    29     1    28   1
    30     1    29   1
    31     1    30   1
    32     2    31   1
    33     2    32   1
    34     3    33   1
    35     3    34   1
    36     6    35   1
    37     7    36   1
    38     8    37   1
    39     9    38   1
    40    10    39   1
    41    11    40   1
    42    12    41   1
    43    13    42   1
    44    13    43   1
    45    14    44   1
    46    21    45   1
    47    23    46   1
    48    24    47   1
    49    25    48   1
    50    26    49   1
    51    27    50   1
@<TRIPOS>SUBSTRUCTURE
     1  NP6      1

