@<TRIPOS>MOLECULE
2wca_ligand_085
    50    51
SMALL
GAST_HUCK
****
This file was generated by PARSER (from files_GN.cpp)

@<TRIPOS>ATOM
      1 C2         -3.2561  -14.5895   12.0139 C.3         1 NP6      -0.0632
      2 C1         -1.9466  -13.9061   11.5404 C.3         1 NP6      -0.0389
      3 C3         -2.0849  -12.4167   11.1230 C.3         1 NP6       0.0372
      4 C4         -3.2053  -12.1675   10.2387 C.2         1 NP6       0.1785
      5 O1         -3.0443  -12.2561    9.0290 O.2         1 NP6      -0.3969
      6 N1         -4.3953  -11.9441   10.7795 N.am        1 NP6      -0.2639
      7 C5         -5.6618  -11.8220   10.1219 C.3         1 NP6       0.1483
      8 C6         -6.6774  -11.1995   11.1311 C.3         1 NP6       0.1223
      9 O2         -6.4022   -9.8112   11.3247 O.3         1 NP6      -0.3842
     10 C7         -8.1350  -11.4019   10.6347 C.3         1 NP6       0.1187
     11 O3         -9.0885  -10.8415   11.5458 O.3         1 NP6      -0.3859
     12 C8         -8.3893  -12.9329   10.4081 C.3         1 NP6       0.1375
     13 C9         -9.3407  -13.2171    9.2220 C.3         1 NP6       0.0780
     14 O4        -10.5409  -12.4597    9.3265 O.3         1 NP6      -0.3919
     15 O5         -7.1877  -13.7256   10.2407 O.3         1 NP6      -0.2871
     16 C10        -6.1439  -13.1164    9.6376 C.2         1 NP6       0.1893
     17 N2         -5.6193  -13.6478    8.5988 N.2         1 NP6      -0.1541
     18 O6         -5.9573  -14.7754    8.1016 O.3         1 NP6      -0.1506
     19 C11        -5.5344  -15.2378    6.9050 C.2         1 NP6       0.3788
     20 O7         -5.9796  -16.4567    6.5344 O.2         1 NP6      -0.3643
     21 N3         -4.7156  -14.4999    6.1169 N.am        1 NP6      -0.2057
     22 C12        -4.3778  -14.7150    4.8151 C.ar        1 NP6       0.0683
     23 C13        -3.0828  -14.3419    4.3930 C.ar        1 NP6      -0.0414
     24 C14        -2.7054  -14.4633    3.0422 C.ar        1 NP6      -0.0756
     25 C15        -3.6264  -14.9370    2.0925 C.ar        1 NP6      -0.0773
     26 C16        -4.9292  -15.2837    2.4931 C.ar        1 NP6      -0.0756
     27 C17        -5.3013  -15.1747    3.8419 C.ar        1 NP6      -0.0414
     28 H1         -3.0323  -15.5702   12.4394 H           1 NP6       0.0231
     29 H2         -3.9389  -14.7341   11.1727 H           1 NP6       0.0231
     30 H3         -3.7572  -13.9849   12.7732 H           1 NP6       0.0231
     31 H4         -1.5426  -14.4792   10.7020 H           1 NP6       0.0287
     32 H5         -1.2218  -13.9668   12.3583 H           1 NP6       0.0287
     33 H6         -1.1621  -12.1001   10.6370 H           1 NP6       0.0502
     34 H7         -2.1868  -11.8147   12.0284 H           1 NP6       0.0502
     35 H8         -4.4135  -11.8785   11.7490 H           1 NP6       0.1888
     36 H9         -5.5702  -11.1315    9.2763 H           1 NP6       0.0821
     37 H10        -6.5821  -11.6963   12.1048 H           1 NP6       0.0672
     38 H11        -6.6251   -9.6341   12.2673 H           1 NP6       0.2103
     39 H12        -8.2443  -10.8602    9.6875 H           1 NP6       0.0653
     40 H13        -8.5866  -10.6652   12.3694 H           1 NP6       0.2100
     41 H14        -8.8578  -13.3308   11.3142 H           1 NP6       0.0708
     42 H15        -9.6011  -14.2740    9.2058 H           1 NP6       0.0588
     43 H16        -8.8472  -12.9675    8.2840 H           1 NP6       0.0588
     44 H17       -10.8880  -12.6554   10.2261 H           1 NP6       0.2095
     45 H18        -4.3196  -13.7163    6.5328 H           1 NP6       0.2276
     46 H19        -2.4085  -13.9729    5.0680 H           1 NP6       0.0501
     47 H20        -1.7625  -14.1941    2.7493 H           1 NP6       0.0577
     48 H21        -3.3573  -15.0110    1.1089 H           1 NP6       0.0487
     49 H22        -5.6118  -15.5949    1.7974 H           1 NP6       0.0577
     50 H23        -6.2673  -15.3897    4.1012 H           1 NP6       0.0501
@<TRIPOS>BOND
     1     1     2   1
     2     2     3   1
     3     3     4   1
     4     4     5   2
     5     4     6  am
     6     6     7   1
     7     7     8   1
     8     7    16   1
     9     8     9   1
    10     8    10   1
    11    10    11   1
    12    10    12   1
    13    12    13   1
    14    12    15   1
    15    13    14   1
    16    15    16   1
    17    16    17   2
    18    17    18   1
    19    18    19   1
    20    19    20   2
    21    19    21  am
    22    21    22   1
    23    22    23  ar
    24    22    27  ar
    25    23    24  ar
    26    24    25  ar
    27    25    26  ar
    28    26    27  ar
    29     1    28   1
    30     1    29   1
    31     1    30   1
    32     2    31   1
    33     2    32   1
    34     3    33   1
    35     3    34   1
    36     6    35   1
    37     7    36   1
    38     8    37   1
    39     9    38   1
    40    10    39   1
    41    11    40   1
    42    12    41   1
    43    13    42   1
    44    13    43   1
    45    14    44   1
    46    21    45   1
    47    23    46   1
    48    24    47   1
    49    25    48   1
    50    26    49   1
    51    27    50   1
@<TRIPOS>SUBSTRUCTURE
     1  NP6      1

