@<TRIPOS>MOLECULE
2wca_ligand_067
    50    51
SMALL
GAST_HUCK
****
This file was generated by PARSER (from files_GN.cpp)

@<TRIPOS>ATOM
      1 C2         -7.1308  -18.1606    9.1687 C.3         1 NP6      -0.0632
      2 C1         -8.3396  -18.4583   10.0840 C.3         1 NP6      -0.0389
      3 C3         -9.7045  -18.0580    9.4584 C.3         1 NP6       0.0372
      4 C4         -9.8911  -16.6223    9.3316 C.2         1 NP6       0.1785
      5 O1        -10.0697  -15.9609   10.3470 O.2         1 NP6      -0.3969
      6 N1         -9.8717  -16.0532    8.1327 N.am        1 NP6      -0.2639
      7 C5        -10.0912  -14.6598    7.8401 C.3         1 NP6       0.1483
      8 C6        -10.3035  -14.4810    6.3015 C.3         1 NP6       0.1223
      9 O2        -11.4545  -15.2146    5.8890 O.3         1 NP6      -0.3842
     10 C7        -10.4414  -12.9849    5.8984 C.3         1 NP6       0.1187
     11 O3        -10.4149  -12.8543    4.4761 O.3         1 NP6      -0.3859
     12 C8         -9.2650  -12.1805    6.5304 C.3         1 NP6       0.1375
     13 C9         -9.4234  -10.6476    6.4062 C.3         1 NP6       0.0780
     14 O4         -9.4988  -10.2004    5.0462 O.3         1 NP6      -0.3919
     15 O5         -9.1503  -12.4626    7.9429 O.3         1 NP6      -0.2871
     16 C10        -9.0034  -13.7618    8.2365 C.2         1 NP6       0.1893
     17 N2         -7.8881  -14.2116    8.6920 N.2         1 NP6      -0.1541
     18 O6         -6.7949  -13.6490    9.0599 O.3         1 NP6      -0.1506
     19 C11        -6.4740  -12.3958    9.4772 C.2         1 NP6       0.3788
     20 O7         -5.1526  -12.1217    9.6031 O.2         1 NP6      -0.3643
     21 N3         -7.4164  -11.4965    9.8472 N.am        1 NP6      -0.2057
     22 C12        -7.2277  -10.1752   10.1172 C.ar        1 NP6       0.0683
     23 C13        -7.9130   -9.6150   11.2170 C.ar        1 NP6      -0.0414
     24 C14        -7.8177   -8.2373   11.4817 C.ar        1 NP6      -0.0756
     25 C15        -7.0682   -7.4000   10.6290 C.ar        1 NP6      -0.0773
     26 C16        -6.3933   -7.9468    9.5202 C.ar        1 NP6      -0.0756
     27 C17        -6.4663   -9.3307    9.2691 C.ar        1 NP6      -0.0414
     28 H1         -6.2146  -18.5229    9.6402 H           1 NP6       0.0231
     29 H2         -7.0356  -17.0876    8.9888 H           1 NP6       0.0231
     30 H3         -7.2468  -18.6727    8.2122 H           1 NP6       0.0231
     31 H4         -8.2051  -17.9500   11.0396 H           1 NP6       0.0287
     32 H5         -8.3624  -19.5315   10.2827 H           1 NP6       0.0287
     33 H6        -10.5118  -18.4532   10.0797 H           1 NP6       0.0502
     34 H7         -9.7964  -18.5467    8.4843 H           1 NP6       0.0502
     35 H8         -9.6891  -16.6296    7.3741 H           1 NP6       0.1888
     36 H9        -11.0093  -14.3424    8.3513 H           1 NP6       0.0821
     37 H10        -9.4392  -14.8967    5.7769 H           1 NP6       0.0672
     38 H11       -11.4381  -15.2000    4.9061 H           1 NP6       0.2103
     39 H12       -11.3928  -12.5972    6.2756 H           1 NP6       0.0653
     40 H13       -11.2069  -13.3315    4.1452 H           1 NP6       0.2100
     41 H14        -8.3296  -12.4544    6.0326 H           1 NP6       0.0708
     42 H15        -8.5457  -10.1614    6.8551 H           1 NP6       0.0588
     43 H16       -10.3211  -10.3098    6.9452 H           1 NP6       0.0588
     44 H17       -10.3442  -10.5724    4.7082 H           1 NP6       0.2095
     45 H18        -8.3231  -11.8325    9.9568 H           1 NP6       0.2276
     46 H19        -8.4839  -10.2071   11.8299 H           1 NP6       0.0501
     47 H20        -8.3026   -7.8367   12.2901 H           1 NP6       0.0577
     48 H21        -7.0196   -6.3947   10.8106 H           1 NP6       0.0487
     49 H22        -5.8619   -7.3402    8.8890 H           1 NP6       0.0577
     50 H23        -6.0001   -9.7108    8.4410 H           1 NP6       0.0501
@<TRIPOS>BOND
     1     1     2   1
     2     2     3   1
     3     3     4   1
     4     4     5   2
     5     4     6  am
     6     6     7   1
     7     7     8   1
     8     7    16   1
     9     8     9   1
    10     8    10   1
    11    10    11   1
    12    10    12   1
    13    12    13   1
    14    12    15   1
    15    13    14   1
    16    15    16   1
    17    16    17   2
    18    17    18   1
    19    18    19   1
    20    19    20   2
    21    19    21  am
    22    21    22   1
    23    22    23  ar
    24    22    27  ar
    25    23    24  ar
    26    24    25  ar
    27    25    26  ar
    28    26    27  ar
    29     1    28   1
    30     1    29   1
    31     1    30   1
    32     2    31   1
    33     2    32   1
    34     3    33   1
    35     3    34   1
    36     6    35   1
    37     7    36   1
    38     8    37   1
    39     9    38   1
    40    10    39   1
    41    11    40   1
    42    12    41   1
    43    13    42   1
    44    13    43   1
    45    14    44   1
    46    21    45   1
    47    23    46   1
    48    24    47   1
    49    25    48   1
    50    26    49   1
    51    27    50   1
@<TRIPOS>SUBSTRUCTURE
     1  NP6      1

