@<TRIPOS>MOLECULE
2wca_ligand_006
    50    51
SMALL
GAST_HUCK
****
This file was generated by PARSER (from files_GN.cpp)

@<TRIPOS>ATOM
      1 C2        -13.6117  -11.4609    2.8441 C.3         1 NP6      -0.0632
      2 C1        -12.2926  -10.9199    3.4390 C.3         1 NP6      -0.0389
      3 C3        -11.6332  -11.8488    4.5028 C.3         1 NP6       0.0372
      4 C4        -10.7966  -11.1843    5.5015 C.2         1 NP6       0.1785
      5 O1        -10.5995   -9.9719    5.4607 O.2         1 NP6      -0.3969
      6 N1        -10.3145  -11.8995    6.5191 N.am        1 NP6      -0.2639
      7 C5         -9.6128  -11.3707    7.6609 C.3         1 NP6       0.1483
      8 C6         -8.1526  -10.9137    7.3338 C.3         1 NP6       0.1223
      9 O2         -8.1646   -9.8517    6.3896 O.3         1 NP6      -0.3842
     10 C7         -7.4018  -10.4497    8.6259 C.3         1 NP6       0.1187
     11 O3         -6.0163  -10.2166    8.3345 O.3         1 NP6      -0.3859
     12 C8         -7.5810  -11.5239    9.7479 C.3         1 NP6       0.1375
     13 C9         -6.9944  -11.0886   11.1140 C.3         1 NP6       0.0780
     14 O4         -7.2411   -9.7140   11.3744 O.3         1 NP6      -0.3919
     15 O5         -8.9859  -11.8336    9.9163 O.3         1 NP6      -0.2871
     16 C10        -9.5264  -12.3081    8.7740 C.2         1 NP6       0.1893
     17 N2         -9.5358  -13.5793    8.5889 N.2         1 NP6      -0.1541
     18 O6         -9.3568  -14.4222    9.5325 O.3         1 NP6      -0.1506
     19 C11        -8.7029  -15.6060    9.4156 C.2         1 NP6       0.3788
     20 O7         -8.6511  -16.3606   10.5366 O.2         1 NP6      -0.3643
     21 N3         -8.0128  -15.8626    8.2754 N.am        1 NP6      -0.2057
     22 C12        -7.0486  -16.7879    8.0039 C.ar        1 NP6       0.0683
     23 C13        -6.6760  -17.8811    8.8222 C.ar        1 NP6      -0.0414
     24 C14        -5.6140  -18.7274    8.4517 C.ar        1 NP6      -0.0756
     25 C15        -4.9114  -18.4993    7.2546 C.ar        1 NP6      -0.0773
     26 C16        -5.2781  -17.4302    6.4221 C.ar        1 NP6      -0.0756
     27 C17        -6.3341  -16.5807    6.7991 C.ar        1 NP6      -0.0414
     28 H1        -13.9947  -10.7552    2.1039 H           1 NP6       0.0231
     29 H2        -14.3643  -11.5742    3.6336 H           1 NP6       0.0231
     30 H3        -13.4492  -12.4227    2.3603 H           1 NP6       0.0231
     31 H4        -12.5224   -9.9419    3.8804 H           1 NP6       0.0287
     32 H5        -11.5845  -10.7590    2.6208 H           1 NP6       0.0287
     33 H6        -11.0260  -12.5872    3.9802 H           1 NP6       0.0502
     34 H7        -12.4156  -12.3878    5.0425 H           1 NP6       0.0502
     35 H8        -10.5169  -12.8484    6.5248 H           1 NP6       0.1888
     36 H9        -10.1797  -10.5137    8.0429 H           1 NP6       0.0821
     37 H10        -7.6018  -11.7551    6.8953 H           1 NP6       0.0672
     38 H11        -7.8536  -10.2613    5.5480 H           1 NP6       0.2103
     39 H12        -7.8354   -9.5028    8.9546 H           1 NP6       0.0653
     40 H13        -5.6594  -11.0885    8.0608 H           1 NP6       0.2100
     41 H14        -7.0362  -12.4309    9.4534 H           1 NP6       0.0708
     42 H15        -5.9176  -11.2778   11.1385 H           1 NP6       0.0588
     43 H16        -7.4605  -11.6799   11.9065 H           1 NP6       0.0588
     44 H17        -7.1305   -9.6126   12.3354 H           1 NP6       0.2095
     45 H18        -8.1492  -15.2057    7.5757 H           1 NP6       0.2276
     46 H19        -7.1639  -18.0812    9.6925 H           1 NP6       0.0501
     47 H20        -5.3462  -19.5083    9.0580 H           1 NP6       0.0577
     48 H21        -4.1401  -19.1131    6.9883 H           1 NP6       0.0487
     49 H22        -4.7726  -17.2607    5.5520 H           1 NP6       0.0577
     50 H23        -6.5722  -15.7933    6.1862 H           1 NP6       0.0501
@<TRIPOS>BOND
     1     1     2   1
     2     2     3   1
     3     3     4   1
     4     4     5   2
     5     4     6  am
     6     6     7   1
     7     7     8   1
     8     7    16   1
     9     8     9   1
    10     8    10   1
    11    10    11   1
    12    10    12   1
    13    12    13   1
    14    12    15   1
    15    13    14   1
    16    15    16   1
    17    16    17   2
    18    17    18   1
    19    18    19   1
    20    19    20   2
    21    19    21  am
    22    21    22   1
    23    22    23  ar
    24    22    27  ar
    25    23    24  ar
    26    24    25  ar
    27    25    26  ar
    28    26    27  ar
    29     1    28   1
    30     1    29   1
    31     1    30   1
    32     2    31   1
    33     2    32   1
    34     3    33   1
    35     3    34   1
    36     6    35   1
    37     7    36   1
    38     8    37   1
    39     9    38   1
    40    10    39   1
    41    11    40   1
    42    12    41   1
    43    13    42   1
    44    13    43   1
    45    14    44   1
    46    21    45   1
    47    23    46   1
    48    24    47   1
    49    25    48   1
    50    26    49   1
    51    27    50   1
@<TRIPOS>SUBSTRUCTURE
     1  NP6      1

