@<TRIPOS>MOLECULE
2wca_ligand_003
    50    51
SMALL
GAST_HUCK
****
This file was generated by PARSER (from files_GN.cpp)

@<TRIPOS>ATOM
      1 C2        -12.0204  -11.2771    2.2295 C.3         1 NP6      -0.0632
      2 C1        -12.5828  -11.4866    3.6499 C.3         1 NP6      -0.0389
      3 C3        -11.5990  -12.1872    4.6420 C.3         1 NP6       0.0372
      4 C4        -10.7729  -11.3455    5.4981 C.2         1 NP6       0.1785
      5 O1        -10.7678  -10.1257    5.3745 O.2         1 NP6      -0.3969
      6 N1        -10.1034  -11.9293    6.4906 N.am        1 NP6      -0.2639
      7 C5         -9.4262  -11.2725    7.5820 C.3         1 NP6       0.1483
      8 C6         -8.0532  -10.6497    7.1638 C.3         1 NP6       0.1223
      9 O2         -8.2450   -9.5900    6.2315 O.3         1 NP6      -0.3842
     10 C7         -7.2787  -10.0845    8.3944 C.3         1 NP6       0.1187
     11 O3         -5.9644   -9.6816    8.0188 O.3         1 NP6      -0.3859
     12 C8         -7.2414  -11.1489    9.5343 C.3         1 NP6       0.1375
     13 C9         -6.6828  -10.6018   10.8736 C.3         1 NP6       0.0780
     14 O4         -7.5277   -9.5863   11.4100 O.3         1 NP6      -0.3919
     15 O5         -8.5717  -11.6496    9.7918 O.3         1 NP6      -0.2871
     16 C10        -9.1614  -12.1708    8.7035 C.2         1 NP6       0.1893
     17 N2         -9.3765  -13.4314    8.6594 N.2         1 NP6      -0.1541
     18 O6         -9.1268  -14.1991    9.6432 O.3         1 NP6      -0.1506
     19 C11        -9.1823  -15.5501    9.6105 C.2         1 NP6       0.3788
     20 O7         -8.9587  -16.1815   10.7865 O.2         1 NP6      -0.3643
     21 N3         -9.4973  -16.2042    8.4731 N.am        1 NP6      -0.2057
     22 C12        -9.4863  -17.5502    8.2531 C.ar        1 NP6       0.0683
     23 C13       -10.4357  -18.0703    7.3485 C.ar        1 NP6      -0.0414
     24 C14       -10.4706  -19.4487    7.0631 C.ar        1 NP6      -0.0756
     25 C15        -9.5504  -20.3177    7.6766 C.ar        1 NP6      -0.0773
     26 C16        -8.5680  -19.8056    8.5368 C.ar        1 NP6      -0.0756
     27 C17        -8.5267  -18.4244    8.8144 C.ar        1 NP6      -0.0414
     28 H1        -12.7502  -10.7382    1.6202 H           1 NP6       0.0231
     29 H2        -11.8318  -12.2455    1.7634 H           1 NP6       0.0231
     30 H3        -11.0932  -10.7046    2.2581 H           1 NP6       0.0231
     31 H4        -13.4817  -12.0947    3.5603 H           1 NP6       0.0287
     32 H5        -12.8934  -10.5201    4.0457 H           1 NP6       0.0287
     33 H6        -10.9380  -12.8559    4.0815 H           1 NP6       0.0502
     34 H7        -12.2026  -12.8058    5.3116 H           1 NP6       0.0502
     35 H8        -10.1933  -12.8914    6.5502 H           1 NP6       0.1888
     36 H9        -10.0755  -10.4861    7.9701 H           1 NP6       0.0821
     37 H10        -7.4400  -11.4248    6.6824 H           1 NP6       0.0672
     38 H11        -7.8263   -9.8914    5.3911 H           1 NP6       0.2103
     39 H12        -7.8088   -9.1971    8.7562 H           1 NP6       0.0653
     40 H13        -5.4899  -10.5061    7.7717 H           1 NP6       0.2100
     41 H14        -6.5932  -11.9796    9.2310 H           1 NP6       0.0708
     42 H15        -5.6781  -10.1949   10.7439 H           1 NP6       0.0588
     43 H16        -6.6273  -11.4205   11.6024 H           1 NP6       0.0588
     44 H17        -7.2971   -9.5377   12.3595 H           1 NP6       0.2095
     45 H18        -9.8092  -15.6541    7.7356 H           1 NP6       0.2276
     46 H19       -11.1087  -17.4497    6.8903 H           1 NP6       0.0501
     47 H20       -11.1672  -19.8185    6.4149 H           1 NP6       0.0577
     48 H21        -9.5920  -21.3191    7.4836 H           1 NP6       0.0487
     49 H22        -7.8783  -20.4290    8.9599 H           1 NP6       0.0577
     50 H23        -7.7747  -18.0641    9.4047 H           1 NP6       0.0501
@<TRIPOS>BOND
     1     1     2   1
     2     2     3   1
     3     3     4   1
     4     4     5   2
     5     4     6  am
     6     6     7   1
     7     7     8   1
     8     7    16   1
     9     8     9   1
    10     8    10   1
    11    10    11   1
    12    10    12   1
    13    12    13   1
    14    12    15   1
    15    13    14   1
    16    15    16   1
    17    16    17   2
    18    17    18   1
    19    18    19   1
    20    19    20   2
    21    19    21  am
    22    21    22   1
    23    22    23  ar
    24    22    27  ar
    25    23    24  ar
    26    24    25  ar
    27    25    26  ar
    28    26    27  ar
    29     1    28   1
    30     1    29   1
    31     1    30   1
    32     2    31   1
    33     2    32   1
    34     3    33   1
    35     3    34   1
    36     6    35   1
    37     7    36   1
    38     8    37   1
    39     9    38   1
    40    10    39   1
    41    11    40   1
    42    12    41   1
    43    13    42   1
    44    13    43   1
    45    14    44   1
    46    21    45   1
    47    23    46   1
    48    24    47   1
    49    25    48   1
    50    26    49   1
    51    27    50   1
@<TRIPOS>SUBSTRUCTURE
     1  NP6      1

