@<TRIPOS>MOLECULE
2wca_ligand_041
    50    51
SMALL
GAST_HUCK
****
This file was generated by PARSER (from files_GN.cpp)

@<TRIPOS>ATOM
      1 C2        -12.6606  -10.8454    1.6491 C.3         1 NP6      -0.0632
      2 C1        -11.5464  -11.2533    2.6398 C.3         1 NP6      -0.0389
      3 C3        -12.0488  -11.2830    4.1063 C.3         1 NP6       0.0372
      4 C4        -11.0542  -11.7083    5.0764 C.2         1 NP6       0.1785
      5 O1        -10.7216  -10.9309    5.9632 O.2         1 NP6      -0.3969
      6 N1        -10.5625  -12.9421    5.0293 N.am        1 NP6      -0.2639
      7 C5         -9.7179  -13.5908    6.0006 C.3         1 NP6       0.1483
      8 C6        -10.5807  -14.2541    7.1182 C.3         1 NP6       0.1223
      9 O2        -11.4322  -15.2525    6.5576 O.3         1 NP6      -0.3842
     10 C7         -9.6927  -14.8979    8.2144 C.3         1 NP6       0.1187
     11 O3        -10.4961  -15.3971    9.2842 O.3         1 NP6      -0.3859
     12 C8         -8.6825  -13.8310    8.7292 C.3         1 NP6       0.1375
     13 C9         -7.6530  -14.4082    9.7331 C.3         1 NP6       0.0780
     14 O4         -6.7399  -15.3176    9.1222 O.3         1 NP6      -0.3919
     15 O5         -7.9454  -13.2318    7.6402 O.3         1 NP6      -0.2871
     16 C10        -8.6494  -12.7760    6.5838 C.2         1 NP6       0.1893
     17 N2         -8.1038  -11.8622    5.8663 N.2         1 NP6      -0.1541
     18 O6         -7.1241  -11.0924    6.1591 O.3         1 NP6      -0.1506
     19 C11        -6.8635  -10.3644    7.2756 C.2         1 NP6       0.3788
     20 O7         -5.6439   -9.7825    7.3140 O.2         1 NP6      -0.3643
     21 N3         -7.7955  -10.2005    8.2464 N.am        1 NP6      -0.2057
     22 C12        -7.7563   -9.3793    9.3399 C.ar        1 NP6       0.0683
     23 C13        -7.1441   -8.1003    9.3680 C.ar        1 NP6      -0.0414
     24 C14        -7.1643   -7.3137   10.5346 C.ar        1 NP6      -0.0756
     25 C15        -7.8159   -7.7827   11.6875 C.ar        1 NP6      -0.0773
     26 C16        -8.4563   -9.0342   11.6662 C.ar        1 NP6      -0.0756
     27 C17        -8.4379   -9.8185   10.4973 C.ar        1 NP6      -0.0414
     28 H1        -12.2585  -10.7921    0.6360 H           1 NP6       0.0231
     29 H2        -13.0656   -9.8670    1.9136 H           1 NP6       0.0231
     30 H3        -13.4700  -11.5779    1.6658 H           1 NP6       0.0231
     31 H4        -10.7225  -10.5418    2.5519 H           1 NP6       0.0287
     32 H5        -11.1776  -12.2422    2.3578 H           1 NP6       0.0287
     33 H6        -12.9019  -11.9627    4.1742 H           1 NP6       0.0502
     34 H7        -12.4046  -10.2802    4.3573 H           1 NP6       0.0502
     35 H8        -10.8555  -13.4937    4.2848 H           1 NP6       0.1888
     36 H9         -9.2174  -14.3991    5.4606 H           1 NP6       0.0821
     37 H10       -11.2162  -13.4978    7.5877 H           1 NP6       0.0672
     38 H11       -12.0652  -14.7631    5.9913 H           1 NP6       0.2103
     39 H12        -9.1477  -15.7384    7.7793 H           1 NP6       0.0653
     40 H13       -11.0257  -16.1241    8.8916 H           1 NP6       0.2100
     41 H14        -9.2378  -13.0395    9.2444 H           1 NP6       0.0708
     42 H15        -8.1635  -14.9186   10.5530 H           1 NP6       0.0588
     43 H16        -7.0704  -13.5868   10.1546 H           1 NP6       0.0588
     44 H17        -7.2536  -16.1369    8.9617 H           1 NP6       0.2095
     45 H18        -8.5997  -10.7351    8.1524 H           1 NP6       0.2276
     46 H19        -6.6991   -7.7108    8.5377 H           1 NP6       0.0501
     47 H20        -6.7094   -6.3979   10.5419 H           1 NP6       0.0577
     48 H21        -7.8285   -7.2122   12.5355 H           1 NP6       0.0487
     49 H22        -8.9328   -9.3747   12.5031 H           1 NP6       0.0577
     50 H23        -8.9157  -10.7243   10.5023 H           1 NP6       0.0501
@<TRIPOS>BOND
     1     1     2   1
     2     2     3   1
     3     3     4   1
     4     4     5   2
     5     4     6  am
     6     6     7   1
     7     7     8   1
     8     7    16   1
     9     8     9   1
    10     8    10   1
    11    10    11   1
    12    10    12   1
    13    12    13   1
    14    12    15   1
    15    13    14   1
    16    15    16   1
    17    16    17   2
    18    17    18   1
    19    18    19   1
    20    19    20   2
    21    19    21  am
    22    21    22   1
    23    22    23  ar
    24    22    27  ar
    25    23    24  ar
    26    24    25  ar
    27    25    26  ar
    28    26    27  ar
    29     1    28   1
    30     1    29   1
    31     1    30   1
    32     2    31   1
    33     2    32   1
    34     3    33   1
    35     3    34   1
    36     6    35   1
    37     7    36   1
    38     8    37   1
    39     9    38   1
    40    10    39   1
    41    11    40   1
    42    12    41   1
    43    13    42   1
    44    13    43   1
    45    14    44   1
    46    21    45   1
    47    23    46   1
    48    24    47   1
    49    25    48   1
    50    26    49   1
    51    27    50   1
@<TRIPOS>SUBSTRUCTURE
     1  NP6      1

