@<TRIPOS>MOLECULE
2wca_ligand_064
    50    51
SMALL
GAST_HUCK
****
This file was generated by PARSER (from files_GN.cpp)

@<TRIPOS>ATOM
      1 C2         -6.0384  -14.5582    9.1902 C.3         1 NP6      -0.0632
      2 C1         -7.4726  -15.1361    9.2295 C.3         1 NP6      -0.0389
      3 C3         -7.5573  -16.6507    8.8865 C.3         1 NP6       0.0372
      4 C4         -7.8637  -17.5452    9.9921 C.2         1 NP6       0.1785
      5 O1         -8.6728  -17.2046   10.8522 O.2         1 NP6      -0.3969
      6 N1         -7.4432  -18.8043    9.9252 N.am        1 NP6      -0.2639
      7 C5         -7.5737  -19.8328   10.9254 C.3         1 NP6       0.1483
      8 C6         -6.1825  -20.5243   11.0574 C.3         1 NP6       0.1223
      9 O2         -5.3051  -19.6802   11.8038 O.3         1 NP6      -0.3842
     10 C7         -6.2697  -21.9202   11.7250 C.3         1 NP6       0.1187
     11 O3         -4.9771  -22.5279   11.7226 O.3         1 NP6      -0.3859
     12 C8         -7.3110  -22.7642   10.9360 C.3         1 NP6       0.1375
     13 C9         -7.5330  -24.1697   11.5571 C.3         1 NP6       0.0780
     14 O4         -8.0097  -25.1016   10.5906 O.3         1 NP6      -0.3919
     15 O5         -8.5861  -22.0896   10.9058 O.3         1 NP6      -0.2871
     16 C10        -8.6553  -20.7775   10.6082 C.2         1 NP6       0.1893
     17 N2         -9.8741  -20.3861   10.4929 N.2         1 NP6      -0.1541
     18 O6        -10.3235  -19.2016   10.3382 O.3         1 NP6      -0.1506
     19 C11       -11.5254  -18.8067   10.8399 C.2         1 NP6       0.3788
     20 O7        -12.2304  -19.6266   11.6584 O.2         1 NP6      -0.3643
     21 N3        -12.0094  -17.5566   10.6715 N.am        1 NP6      -0.2057
     22 C12       -11.5775  -16.6248    9.7812 C.ar        1 NP6       0.0683
     23 C13       -11.4552  -15.2881   10.2143 C.ar        1 NP6      -0.0414
     24 C14       -11.1370  -14.2671    9.3015 C.ar        1 NP6      -0.0756
     25 C15       -10.9764  -14.5664    7.9369 C.ar        1 NP6      -0.0773
     26 C16       -11.1325  -15.8892    7.4852 C.ar        1 NP6      -0.0756
     27 C17       -11.4155  -16.9172    8.4050 C.ar        1 NP6      -0.0414
     28 H1         -6.0545  -13.5131    9.5191 H           1 NP6       0.0231
     29 H2         -5.6374  -14.5909    8.1690 H           1 NP6       0.0231
     30 H3         -5.3747  -15.1243    9.8481 H           1 NP6       0.0231
     31 H4         -8.0691  -14.5866    8.4919 H           1 NP6       0.0287
     32 H5         -7.9166  -14.9383   10.2102 H           1 NP6       0.0287
     33 H6         -6.6151  -16.9529    8.4099 H           1 NP6       0.0502
     34 H7         -8.3394  -16.7880    8.1430 H           1 NP6       0.0502
     35 H8         -6.9350  -19.0520    9.1330 H           1 NP6       0.1888
     36 H9         -7.8162  -19.4029   11.9044 H           1 NP6       0.0821
     37 H10        -5.7403  -20.6567   10.0636 H           1 NP6       0.0672
     38 H11        -4.4925  -20.2107   11.9562 H           1 NP6       0.2103
     39 H12        -6.5964  -21.8033   12.7635 H           1 NP6       0.0653
     40 H13        -4.9399  -23.0782   12.5340 H           1 NP6       0.2100
     41 H14        -6.9654  -22.8997    9.9044 H           1 NP6       0.0708
     42 H15        -8.2618  -24.1087   12.3669 H           1 NP6       0.0588
     43 H16        -6.5969  -24.5565   11.9595 H           1 NP6       0.0588
     44 H17        -8.0302  -25.9710   11.0526 H           1 NP6       0.2095
     45 H18       -12.7500  -17.2967   11.2444 H           1 NP6       0.2276
     46 H19       -11.5862  -15.0561   11.2009 H           1 NP6       0.0501
     47 H20       -11.0430  -13.3045    9.6250 H           1 NP6       0.0577
     48 H21       -10.7680  -13.8229    7.2687 H           1 NP6       0.0487
     49 H22       -11.0296  -16.1065    6.4895 H           1 NP6       0.0577
     50 H23       -11.5364  -17.8746    8.0590 H           1 NP6       0.0501
@<TRIPOS>BOND
     1     1     2   1
     2     2     3   1
     3     3     4   1
     4     4     5   2
     5     4     6  am
     6     6     7   1
     7     7     8   1
     8     7    16   1
     9     8     9   1
    10     8    10   1
    11    10    11   1
    12    10    12   1
    13    12    13   1
    14    12    15   1
    15    13    14   1
    16    15    16   1
    17    16    17   2
    18    17    18   1
    19    18    19   1
    20    19    20   2
    21    19    21  am
    22    21    22   1
    23    22    23  ar
    24    22    27  ar
    25    23    24  ar
    26    24    25  ar
    27    25    26  ar
    28    26    27  ar
    29     1    28   1
    30     1    29   1
    31     1    30   1
    32     2    31   1
    33     2    32   1
    34     3    33   1
    35     3    34   1
    36     6    35   1
    37     7    36   1
    38     8    37   1
    39     9    38   1
    40    10    39   1
    41    11    40   1
    42    12    41   1
    43    13    42   1
    44    13    43   1
    45    14    44   1
    46    21    45   1
    47    23    46   1
    48    24    47   1
    49    25    48   1
    50    26    49   1
    51    27    50   1
@<TRIPOS>SUBSTRUCTURE
     1  NP6      1

