@<TRIPOS>MOLECULE
2wca_ligand_058
    50    51
SMALL
GAST_HUCK
****
This file was generated by PARSER (from files_GN.cpp)

@<TRIPOS>ATOM
      1 C2        -12.2836  -15.5876    8.4317 C.3         1 NP6      -0.0632
      2 C1        -11.3356  -14.9766    9.4884 C.3         1 NP6      -0.0389
      3 C3         -9.8468  -15.2668    9.1709 C.3         1 NP6       0.0372
      4 C4         -8.9703  -14.4341    9.9761 C.2         1 NP6       0.1785
      5 O1         -8.8735  -14.6568   11.1806 O.2         1 NP6      -0.3969
      6 N1         -8.3732  -13.3981    9.3986 N.am        1 NP6      -0.2639
      7 C5         -7.5621  -12.3776   10.0162 C.3         1 NP6       0.1483
      8 C6         -8.3820  -11.5985   11.0977 C.3         1 NP6       0.1223
      9 O2         -8.3428  -12.3317   12.3274 O.3         1 NP6      -0.3842
     10 C7         -7.8998  -10.1486   11.3810 C.3         1 NP6       0.1187
     11 O3         -8.9091   -9.4581   12.1106 O.3         1 NP6      -0.3859
     12 C8         -7.6210   -9.4227   10.0349 C.3         1 NP6       0.1375
     13 C9         -6.9972   -8.0141   10.1847 C.3         1 NP6       0.0780
     14 O4         -7.2526   -7.3868   11.4495 O.3         1 NP6      -0.3919
     15 O5         -6.6825  -10.2071    9.2684 O.3         1 NP6      -0.2871
     16 C10        -7.0260  -11.4705    8.9905 C.2         1 NP6       0.1893
     17 N2         -6.7254  -11.9333    7.8285 N.2         1 NP6      -0.1541
     18 O6         -6.0781  -11.4209    6.8503 O.3         1 NP6      -0.1506
     19 C11        -4.9559  -10.6606    6.7643 C.2         1 NP6       0.3788
     20 O7         -4.6656  -10.2148    5.5214 O.2         1 NP6      -0.3643
     21 N3         -4.1453  -10.4453    7.8310 N.am        1 NP6      -0.2057
     22 C12        -2.9069   -9.8686    7.9245 C.ar        1 NP6       0.0683
     23 C13        -2.3971   -9.7121    9.2358 C.ar        1 NP6      -0.0414
     24 C14        -1.1006   -9.2153    9.4587 C.ar        1 NP6      -0.0756
     25 C15        -0.2884   -8.8527    8.3714 C.ar        1 NP6      -0.0773
     26 C16        -0.7816   -8.9751    7.0616 C.ar        1 NP6      -0.0756
     27 C17        -2.0844   -9.4705    6.8416 C.ar        1 NP6      -0.0414
     28 H1        -13.3217  -15.3760    8.7044 H           1 NP6       0.0231
     29 H2        -12.1443  -16.6740    8.3783 H           1 NP6       0.0231
     30 H3        -12.0758  -15.1467    7.4516 H           1 NP6       0.0231
     31 H4        -11.5874  -15.3930   10.4750 H           1 NP6       0.0287
     32 H5        -11.4989  -13.8911    9.5206 H           1 NP6       0.0287
     33 H6         -9.6641  -15.0848    8.0992 H           1 NP6       0.0502
     34 H7         -9.6146  -16.3166    9.3685 H           1 NP6       0.0502
     35 H8         -8.5059  -13.2975    8.4362 H           1 NP6       0.1888
     36 H9         -6.6862  -12.8414   10.4882 H           1 NP6       0.0821
     37 H10        -9.4288  -11.5520   10.7638 H           1 NP6       0.0672
     38 H11        -9.2661  -12.3290   12.6604 H           1 NP6       0.2103
     39 H12        -6.9810  -10.1783   11.9671 H           1 NP6       0.0653
     40 H13        -8.7110   -9.6530   13.0476 H           1 NP6       0.2100
     41 H14        -8.5625   -9.3200    9.4813 H           1 NP6       0.0708
     42 H15        -7.4182   -7.3563    9.4109 H           1 NP6       0.0588
     43 H16        -5.9081   -8.0510   10.0372 H           1 NP6       0.0588
     44 H17        -6.7757   -7.9529   12.1021 H           1 NP6       0.2095
     45 H18        -4.4726  -10.8194    8.6596 H           1 NP6       0.2276
     46 H19        -2.9587   -9.9947   10.0516 H           1 NP6       0.0501
     47 H20        -0.7377   -9.1244   10.4142 H           1 NP6       0.0577
     48 H21         0.6626   -8.5036    8.5290 H           1 NP6       0.0487
     49 H22        -0.1989   -8.7067    6.2642 H           1 NP6       0.0577
     50 H23        -2.4117   -9.5502    5.8783 H           1 NP6       0.0501
@<TRIPOS>BOND
     1     1     2   1
     2     2     3   1
     3     3     4   1
     4     4     5   2
     5     4     6  am
     6     6     7   1
     7     7     8   1
     8     7    16   1
     9     8     9   1
    10     8    10   1
    11    10    11   1
    12    10    12   1
    13    12    13   1
    14    12    15   1
    15    13    14   1
    16    15    16   1
    17    16    17   2
    18    17    18   1
    19    18    19   1
    20    19    20   2
    21    19    21  am
    22    21    22   1
    23    22    23  ar
    24    22    27  ar
    25    23    24  ar
    26    24    25  ar
    27    25    26  ar
    28    26    27  ar
    29     1    28   1
    30     1    29   1
    31     1    30   1
    32     2    31   1
    33     2    32   1
    34     3    33   1
    35     3    34   1
    36     6    35   1
    37     7    36   1
    38     8    37   1
    39     9    38   1
    40    10    39   1
    41    11    40   1
    42    12    41   1
    43    13    42   1
    44    13    43   1
    45    14    44   1
    46    21    45   1
    47    23    46   1
    48    24    47   1
    49    25    48   1
    50    26    49   1
    51    27    50   1
@<TRIPOS>SUBSTRUCTURE
     1  NP6      1

