@<TRIPOS>MOLECULE
2wca_ligand_050
    50    51
SMALL
GAST_HUCK
****
This file was generated by PARSER (from files_GN.cpp)

@<TRIPOS>ATOM
      1 C2         -7.9358   -7.1549   10.7187 C.3         1 NP6      -0.0632
      2 C1         -7.1942   -7.8784    9.5734 C.3         1 NP6      -0.0389
      3 C3         -5.6450   -7.9335    9.7673 C.3         1 NP6       0.0372
      4 C4         -5.1324   -9.2301   10.1993 C.2         1 NP6       0.1785
      5 O1         -4.4788   -9.8964    9.4069 O.2         1 NP6      -0.3969
      6 N1         -5.3803   -9.6688   11.4296 N.am        1 NP6      -0.2639
      7 C5         -5.0171  -10.9272   12.0395 C.3         1 NP6       0.1483
      8 C6         -3.7095  -10.7867   12.8888 C.3         1 NP6       0.1223
      9 O2         -3.9230   -9.9258   14.0101 O.3         1 NP6      -0.3842
     10 C7         -3.2462  -12.1808   13.3974 C.3         1 NP6       0.1187
     11 O3         -2.0427  -12.0632   14.1568 O.3         1 NP6      -0.3859
     12 C8         -3.0376  -13.1433   12.1811 C.3         1 NP6       0.1375
     13 C9         -3.2051  -14.6513   12.5255 C.3         1 NP6       0.0780
     14 O4         -1.9406  -15.2864   12.6999 O.3         1 NP6      -0.3919
     15 O5         -3.8415  -12.8277   11.0216 O.3         1 NP6      -0.2871
     16 C10        -4.9548  -12.0748   11.1347 C.2         1 NP6       0.1893
     17 N2         -5.9078  -12.2623   10.2925 N.2         1 NP6      -0.1541
     18 O6         -5.8764  -13.1880    9.4155 O.3         1 NP6      -0.1506
     19 C11        -6.7056  -13.3168    8.3493 C.2         1 NP6       0.3788
     20 O7         -6.4446  -14.3793    7.5571 O.2         1 NP6      -0.3643
     21 N3         -7.6432  -12.3717    8.0828 N.am        1 NP6      -0.2057
     22 C12        -8.5017  -12.2233    7.0251 C.ar        1 NP6       0.0683
     23 C13        -9.3368  -11.0825    7.0556 C.ar        1 NP6      -0.0414
     24 C14       -10.2362  -10.8112    6.0065 C.ar        1 NP6      -0.0756
     25 C15       -10.3218  -11.6820    4.9057 C.ar        1 NP6      -0.0773
     26 C16        -9.5143  -12.8293    4.8642 C.ar        1 NP6      -0.0756
     27 C17        -8.6132  -13.0974    5.9111 C.ar        1 NP6      -0.0414
     28 H1         -9.0097   -7.1677   10.5323 H           1 NP6       0.0231
     29 H2         -7.6120   -6.1134   10.7881 H           1 NP6       0.0231
     30 H3         -7.7412   -7.6486   11.6730 H           1 NP6       0.0231
     31 H4         -7.4243   -7.3460    8.6429 H           1 NP6       0.0287
     32 H5         -7.6062   -8.8868    9.4677 H           1 NP6       0.0287
     33 H6         -5.3310   -7.1915   10.5055 H           1 NP6       0.0502
     34 H7         -5.1722   -7.6446    8.8222 H           1 NP6       0.0502
     35 H8         -5.8683   -9.0609   12.0104 H           1 NP6       0.1888
     36 H9         -5.8182  -11.1456   12.7517 H           1 NP6       0.0821
     37 H10        -2.9191  -10.3496   12.2723 H           1 NP6       0.0672
     38 H11        -4.0386   -9.0229   13.6423 H           1 NP6       0.2103
     39 H12        -4.0212  -12.5731   14.0610 H           1 NP6       0.0653
     40 H13        -1.9103  -12.9455   14.5648 H           1 NP6       0.2100
     41 H14        -2.0089  -13.0216   11.8331 H           1 NP6       0.0708
     42 H15        -3.7235  -15.1584   11.7059 H           1 NP6       0.0588
     43 H16        -3.7977  -14.7829   13.4305 H           1 NP6       0.0588
     44 H17        -2.1506  -16.2201   12.9232 H           1 NP6       0.2095
     45 H18        -7.6883  -11.6607    8.7468 H           1 NP6       0.2276
     46 H19        -9.2954  -10.4310    7.8416 H           1 NP6       0.0501
     47 H20       -10.8279   -9.9753    6.0368 H           1 NP6       0.0577
     48 H21       -10.9668  -11.4780    4.1366 H           1 NP6       0.0487
     49 H22        -9.5786  -13.4680    4.0671 H           1 NP6       0.0577
     50 H23        -8.0413  -13.9342    5.8298 H           1 NP6       0.0501
@<TRIPOS>BOND
     1     1     2   1
     2     2     3   1
     3     3     4   1
     4     4     5   2
     5     4     6  am
     6     6     7   1
     7     7     8   1
     8     7    16   1
     9     8     9   1
    10     8    10   1
    11    10    11   1
    12    10    12   1
    13    12    13   1
    14    12    15   1
    15    13    14   1
    16    15    16   1
    17    16    17   2
    18    17    18   1
    19    18    19   1
    20    19    20   2
    21    19    21  am
    22    21    22   1
    23    22    23  ar
    24    22    27  ar
    25    23    24  ar
    26    24    25  ar
    27    25    26  ar
    28    26    27  ar
    29     1    28   1
    30     1    29   1
    31     1    30   1
    32     2    31   1
    33     2    32   1
    34     3    33   1
    35     3    34   1
    36     6    35   1
    37     7    36   1
    38     8    37   1
    39     9    38   1
    40    10    39   1
    41    11    40   1
    42    12    41   1
    43    13    42   1
    44    13    43   1
    45    14    44   1
    46    21    45   1
    47    23    46   1
    48    24    47   1
    49    25    48   1
    50    26    49   1
    51    27    50   1
@<TRIPOS>SUBSTRUCTURE
     1  NP6      1

