@<TRIPOS>MOLECULE
2wca_ligand_039
    50    51
SMALL
GAST_HUCK
****
This file was generated by PARSER (from files_GN.cpp)

@<TRIPOS>ATOM
      1 C2         -1.9199  -12.5712   13.9615 C.3         1 NP6      -0.0632
      2 C1         -3.4224  -12.7036   14.2944 C.3         1 NP6      -0.0389
      3 C3         -4.3086  -11.5418   13.7443 C.3         1 NP6       0.0372
      4 C4         -4.5343  -11.4863   12.3094 C.2         1 NP6       0.1785
      5 O1         -4.1389  -12.3991   11.5884 O.2         1 NP6      -0.3969
      6 N1         -5.2751  -10.4870   11.8378 N.am        1 NP6      -0.2639
      7 C5         -5.8291  -10.2347   10.5329 C.3         1 NP6       0.1483
      8 C6         -7.3902  -10.2895   10.6145 C.3         1 NP6       0.1223
      9 O2         -7.9003   -9.2248   11.4196 O.3         1 NP6      -0.3842
     10 C7         -8.0014  -10.1960    9.1925 C.3         1 NP6       0.1187
     11 O3         -9.4286  -10.2612    9.2268 O.3         1 NP6      -0.3859
     12 C8         -7.4271  -11.3472    8.2990 C.3         1 NP6       0.1375
     13 C9         -7.3373  -10.9615    6.7876 C.3         1 NP6       0.0780
     14 O4         -6.0509  -10.5146    6.3670 O.3         1 NP6      -0.3919
     15 O5         -6.1877  -11.9243    8.7957 O.3         1 NP6      -0.2871
     16 C10        -5.3594  -11.0674    9.4242 C.2         1 NP6       0.1893
     17 N2         -4.1852  -10.8733    8.9496 N.2         1 NP6      -0.1541
     18 O6         -3.6662  -11.5896    8.0256 O.3         1 NP6      -0.1506
     19 C11        -2.6783  -11.1643    7.2055 C.2         1 NP6       0.3788
     20 O7         -2.2015  -12.0537    6.3039 O.2         1 NP6      -0.3643
     21 N3         -2.3517   -9.8537    7.1774 N.am        1 NP6      -0.2057
     22 C12        -1.5690   -9.2427    6.2613 C.ar        1 NP6       0.0683
     23 C13        -2.0571   -8.0495    5.6897 C.ar        1 NP6      -0.0414
     24 C14        -1.2916   -7.3452    4.7440 C.ar        1 NP6      -0.0756
     25 C15        -0.0177   -7.8221    4.3802 C.ar        1 NP6      -0.0773
     26 C16         0.4855   -9.0022    4.9584 C.ar        1 NP6      -0.0756
     27 C17        -0.2889   -9.7159    5.8916 C.ar        1 NP6      -0.0414
     28 H1         -1.3915  -13.4529   14.3250 H           1 NP6       0.0231
     29 H2         -1.5008  -11.6878   14.4467 H           1 NP6       0.0231
     30 H3         -1.7684  -12.4914   12.8867 H           1 NP6       0.0231
     31 H4         -3.5233  -12.7306   15.3839 H           1 NP6       0.0287
     32 H5         -3.7887  -13.6657   13.9204 H           1 NP6       0.0287
     33 H6         -3.8863  -10.5864   14.0654 H           1 NP6       0.0502
     34 H7         -5.2929  -11.6261   14.2147 H           1 NP6       0.0502
     35 H8         -5.5296   -9.8309   12.5079 H           1 NP6       0.1888
     36 H9         -5.5571   -9.2054   10.2897 H           1 NP6       0.0821
     37 H10        -7.7012  -11.2357   11.0760 H           1 NP6       0.0672
     38 H11        -7.5359   -9.3669   12.3201 H           1 NP6       0.2103
     39 H12        -7.7147   -9.2308    8.7689 H           1 NP6       0.0653
     40 H13        -9.7233   -9.3382    9.0786 H           1 NP6       0.2100
     41 H14        -8.1388  -12.1738    8.3631 H           1 NP6       0.0708
     42 H15        -8.0564  -10.1806    6.5263 H           1 NP6       0.0588
     43 H16        -7.5755  -11.8327    6.1734 H           1 NP6       0.0588
     44 H17        -5.8461   -9.7149    6.9071 H           1 NP6       0.2095
     45 H18        -2.8872   -9.2714    7.7383 H           1 NP6       0.2276
     46 H19        -2.9802   -7.6962    5.9435 H           1 NP6       0.0501
     47 H20        -1.6631   -6.4885    4.3224 H           1 NP6       0.0577
     48 H21         0.5446   -7.3044    3.6954 H           1 NP6       0.0487
     49 H22         1.4158   -9.3399    4.7007 H           1 NP6       0.0577
     50 H23         0.0904  -10.5644    6.3173 H           1 NP6       0.0501
@<TRIPOS>BOND
     1     1     2   1
     2     2     3   1
     3     3     4   1
     4     4     5   2
     5     4     6  am
     6     6     7   1
     7     7     8   1
     8     7    16   1
     9     8     9   1
    10     8    10   1
    11    10    11   1
    12    10    12   1
    13    12    13   1
    14    12    15   1
    15    13    14   1
    16    15    16   1
    17    16    17   2
    18    17    18   1
    19    18    19   1
    20    19    20   2
    21    19    21  am
    22    21    22   1
    23    22    23  ar
    24    22    27  ar
    25    23    24  ar
    26    24    25  ar
    27    25    26  ar
    28    26    27  ar
    29     1    28   1
    30     1    29   1
    31     1    30   1
    32     2    31   1
    33     2    32   1
    34     3    33   1
    35     3    34   1
    36     6    35   1
    37     7    36   1
    38     8    37   1
    39     9    38   1
    40    10    39   1
    41    11    40   1
    42    12    41   1
    43    13    42   1
    44    13    43   1
    45    14    44   1
    46    21    45   1
    47    23    46   1
    48    24    47   1
    49    25    48   1
    50    26    49   1
    51    27    50   1
@<TRIPOS>SUBSTRUCTURE
     1  NP6      1

