@<TRIPOS>MOLECULE
2wca_ligand_070
    50    51
SMALL
GAST_HUCK
****
This file was generated by PARSER (from files_GN.cpp)

@<TRIPOS>ATOM
      1 C2        -11.8873  -12.0339    4.4898 C.3         1 NP6      -0.0632
      2 C1        -10.6034  -12.6009    3.8288 C.3         1 NP6      -0.0389
      3 C3        -10.0312  -13.8800    4.5011 C.3         1 NP6       0.0372
      4 C4         -9.8924  -13.7672    5.9424 C.2         1 NP6       0.1785
      5 O1        -10.5100  -14.5426    6.6677 O.2         1 NP6      -0.3969
      6 N1         -9.1622  -12.7824    6.4452 N.am        1 NP6      -0.2639
      7 C5         -9.1351  -12.3676    7.8215 C.3         1 NP6       0.1483
      8 C6         -8.7285  -10.8685    7.8688 C.3         1 NP6       0.1223
      9 O2         -9.6798  -10.0736    7.1608 O.3         1 NP6      -0.3842
     10 C7         -8.6285  -10.3793    9.3365 C.3         1 NP6       0.1187
     11 O3         -8.1593   -9.0306    9.3945 O.3         1 NP6      -0.3859
     12 C8         -7.6899  -11.3371   10.1340 C.3         1 NP6       0.1375
     13 C9         -7.7078  -11.0265   11.6529 C.3         1 NP6       0.0780
     14 O4         -9.0302  -10.8129   12.1441 O.3         1 NP6      -0.3919
     15 O5         -8.0359  -12.7272    9.9442 O.3         1 NP6      -0.2871
     16 C10        -8.2243  -13.1318    8.6672 C.2         1 NP6       0.1893
     17 N2         -7.8451  -14.3062    8.3250 N.2         1 NP6      -0.1541
     18 O6         -7.0446  -15.0200    9.0166 O.3         1 NP6      -0.1506
     19 C11        -7.0236  -16.3738    9.0177 C.2         1 NP6       0.3788
     20 O7         -6.0805  -16.9577    9.7923 O.2         1 NP6      -0.3643
     21 N3         -7.9624  -17.1127    8.3778 N.am        1 NP6      -0.2057
     22 C12        -8.3693  -18.3711    8.7312 C.ar        1 NP6       0.0683
     23 C13        -8.8841  -19.2310    7.7327 C.ar        1 NP6      -0.0414
     24 C14        -9.4189  -20.4869    8.0808 C.ar        1 NP6      -0.0756
     25 C15        -9.4641  -20.8887    9.4267 C.ar        1 NP6      -0.0773
     26 C16        -8.9761  -20.0366   10.4301 C.ar        1 NP6      -0.0756
     27 C17        -8.4428  -18.7819   10.0839 C.ar        1 NP6      -0.0414
     28 H1        -12.2774  -11.1998    3.9005 H           1 NP6       0.0231
     29 H2        -11.6660  -11.6725    5.4916 H           1 NP6       0.0231
     30 H3        -12.6586  -12.8035    4.5521 H           1 NP6       0.0231
     31 H4         -9.8408  -11.8181    3.8239 H           1 NP6       0.0287
     32 H5        -10.8294  -12.8355    2.7832 H           1 NP6       0.0287
     33 H6         -9.0481  -14.0973    4.0747 H           1 NP6       0.0502
     34 H7        -10.6770  -14.7288    4.2570 H           1 NP6       0.0502
     35 H8         -8.6984  -12.2122    5.8079 H           1 NP6       0.1888
     36 H9        -10.1345  -12.4496    8.2483 H           1 NP6       0.0821
     37 H10        -7.7556  -10.7301    7.3788 H           1 NP6       0.0672
     38 H11       -10.5368  -10.5383    7.2796 H           1 NP6       0.2103
     39 H12        -9.6338  -10.4023    9.7715 H           1 NP6       0.0653
     40 H13        -7.3673   -9.0014    8.8177 H           1 NP6       0.2100
     41 H14        -6.6648  -11.1986    9.7805 H           1 NP6       0.0708
     42 H15        -7.1161  -10.1286   11.8465 H           1 NP6       0.0588
     43 H16        -7.2531  -11.8556   12.2077 H           1 NP6       0.0588
     44 H17        -9.4093  -11.7060   12.2940 H           1 NP6       0.2095
     45 H18        -8.4472  -16.6820    7.6549 H           1 NP6       0.2276
     46 H19        -8.8736  -18.9480    6.7509 H           1 NP6       0.0501
     47 H20        -9.7835  -21.1048    7.3540 H           1 NP6       0.0577
     48 H21        -9.8591  -21.7966    9.6791 H           1 NP6       0.0487
     49 H22        -9.0241  -20.3139   11.4107 H           1 NP6       0.0577
     50 H23        -8.1482  -18.1537   10.8356 H           1 NP6       0.0501
@<TRIPOS>BOND
     1     1     2   1
     2     2     3   1
     3     3     4   1
     4     4     5   2
     5     4     6  am
     6     6     7   1
     7     7     8   1
     8     7    16   1
     9     8     9   1
    10     8    10   1
    11    10    11   1
    12    10    12   1
    13    12    13   1
    14    12    15   1
    15    13    14   1
    16    15    16   1
    17    16    17   2
    18    17    18   1
    19    18    19   1
    20    19    20   2
    21    19    21  am
    22    21    22   1
    23    22    23  ar
    24    22    27  ar
    25    23    24  ar
    26    24    25  ar
    27    25    26  ar
    28    26    27  ar
    29     1    28   1
    30     1    29   1
    31     1    30   1
    32     2    31   1
    33     2    32   1
    34     3    33   1
    35     3    34   1
    36     6    35   1
    37     7    36   1
    38     8    37   1
    39     9    38   1
    40    10    39   1
    41    11    40   1
    42    12    41   1
    43    13    42   1
    44    13    43   1
    45    14    44   1
    46    21    45   1
    47    23    46   1
    48    24    47   1
    49    25    48   1
    50    26    49   1
    51    27    50   1
@<TRIPOS>SUBSTRUCTURE
     1  NP6      1

