@<TRIPOS>MOLECULE
2wca_ligand_049
    50    51
SMALL
GAST_HUCK
****
This file was generated by PARSER (from files_GN.cpp)

@<TRIPOS>ATOM
      1 C2         -9.8285  -13.2668    4.9485 C.3         1 NP6      -0.0632
      2 C1        -10.6104  -12.3656    5.9340 C.3         1 NP6      -0.0389
      3 C3         -9.8850  -11.0258    6.2580 C.3         1 NP6       0.0372
      4 C4         -8.8604  -11.1457    7.2801 C.2         1 NP6       0.1785
      5 O1         -7.6807  -11.1693    6.9431 O.2         1 NP6      -0.3969
      6 N1         -9.2227  -11.2086    8.5577 N.am        1 NP6      -0.2639
      7 C5         -8.3776  -11.2932    9.7268 C.3         1 NP6       0.1483
      8 C6         -7.6156   -9.9510    9.9683 C.3         1 NP6       0.1223
      9 O2         -8.5092   -8.9557   10.4589 O.3         1 NP6      -0.3842
     10 C7         -6.4454  -10.1346   10.9701 C.3         1 NP6       0.1187
     11 O3         -5.7556   -8.8938   11.1311 O.3         1 NP6      -0.3859
     12 C8         -5.5084  -11.2438   10.4098 C.3         1 NP6       0.1375
     13 C9         -4.2855  -11.6024   11.3184 C.3         1 NP6       0.0780
     14 O4         -4.2475  -10.9339   12.5779 O.3         1 NP6      -0.3919
     15 O5         -6.2180  -12.4688   10.1103 O.3         1 NP6      -0.2871
     16 C10        -7.5116  -12.4681    9.7107 C.2         1 NP6       0.1893
     17 N2         -8.0587  -13.6194    9.5471 N.2         1 NP6      -0.1541
     18 O6         -7.4099  -14.6940    9.3186 O.3         1 NP6      -0.1506
     19 C11        -7.7935  -15.9458    9.6803 C.2         1 NP6       0.3788
     20 O7         -8.7605  -16.1128   10.6182 O.2         1 NP6      -0.3643
     21 N3         -7.1642  -17.0513    9.2359 N.am        1 NP6      -0.2057
     22 C12        -6.3759  -17.2027    8.1286 C.ar        1 NP6       0.0683
     23 C13        -5.5511  -18.3454    8.0772 C.ar        1 NP6      -0.0414
     24 C14        -4.8375  -18.6771    6.9129 C.ar        1 NP6      -0.0756
     25 C15        -4.9660  -17.8768    5.7622 C.ar        1 NP6      -0.0773
     26 C16        -5.7781  -16.7298    5.7945 C.ar        1 NP6      -0.0756
     27 C17        -6.4667  -16.3867    6.9742 C.ar        1 NP6      -0.0414
     28 H1        -10.3679  -14.2036    4.7934 H           1 NP6       0.0231
     29 H2         -8.8366  -13.4982    5.3402 H           1 NP6       0.0231
     30 H3         -9.7197  -12.7657    3.9831 H           1 NP6       0.0231
     31 H4        -10.8041  -12.9243    6.8534 H           1 NP6       0.0287
     32 H5        -11.5806  -12.1360    5.4839 H           1 NP6       0.0287
     33 H6        -10.6234  -10.2972    6.6045 H           1 NP6       0.0502
     34 H7         -9.4616  -10.6190    5.3336 H           1 NP6       0.0502
     35 H8        -10.1786  -11.1994    8.7276 H           1 NP6       0.1888
     36 H9         -9.0556  -11.4267   10.5762 H           1 NP6       0.0821
     37 H10        -7.2048   -9.5696    9.0295 H           1 NP6       0.0672
     38 H11        -9.0946   -8.7471    9.6999 H           1 NP6       0.2103
     39 H12        -6.8558  -10.4398   11.9364 H           1 NP6       0.0653
     40 H13        -5.7253   -8.7396   12.0994 H           1 NP6       0.2100
     41 H14        -5.1158  -10.8869    9.4525 H           1 NP6       0.0708
     42 H15        -3.3580  -11.3594   10.7967 H           1 NP6       0.0588
     43 H16        -4.2638  -12.6736   11.5336 H           1 NP6       0.0588
     44 H17        -5.0319  -11.2602   13.0652 H           1 NP6       0.2095
     45 H18        -7.3500  -17.8705    9.7247 H           1 NP6       0.2276
     46 H19        -5.4788  -18.9627    8.8931 H           1 NP6       0.0501
     47 H20        -4.2578  -19.5189    6.8883 H           1 NP6       0.0577
     48 H21        -4.4786  -18.1342    4.9018 H           1 NP6       0.0487
     49 H22        -5.8901  -16.1640    4.9499 H           1 NP6       0.0577
     50 H23        -7.0902  -15.5743    6.9574 H           1 NP6       0.0501
@<TRIPOS>BOND
     1     1     2   1
     2     2     3   1
     3     3     4   1
     4     4     5   2
     5     4     6  am
     6     6     7   1
     7     7     8   1
     8     7    16   1
     9     8     9   1
    10     8    10   1
    11    10    11   1
    12    10    12   1
    13    12    13   1
    14    12    15   1
    15    13    14   1
    16    15    16   1
    17    16    17   2
    18    17    18   1
    19    18    19   1
    20    19    20   2
    21    19    21  am
    22    21    22   1
    23    22    23  ar
    24    22    27  ar
    25    23    24  ar
    26    24    25  ar
    27    25    26  ar
    28    26    27  ar
    29     1    28   1
    30     1    29   1
    31     1    30   1
    32     2    31   1
    33     2    32   1
    34     3    33   1
    35     3    34   1
    36     6    35   1
    37     7    36   1
    38     8    37   1
    39     9    38   1
    40    10    39   1
    41    11    40   1
    42    12    41   1
    43    13    42   1
    44    13    43   1
    45    14    44   1
    46    21    45   1
    47    23    46   1
    48    24    47   1
    49    25    48   1
    50    26    49   1
    51    27    50   1
@<TRIPOS>SUBSTRUCTURE
     1  NP6      1

