@<TRIPOS>MOLECULE
2wca_ligand_018
    50    51
SMALL
GAST_HUCK
****
This file was generated by PARSER (from files_GN.cpp)

@<TRIPOS>ATOM
      1 C2         -5.7924  -16.1118    5.1369 C.3         1 NP6      -0.0632
      2 C1         -5.7761  -17.5799    5.6331 C.3         1 NP6      -0.0389
      3 C3         -5.3833  -17.7436    7.1196 C.3         1 NP6       0.0372
      4 C4         -5.7100  -16.6279    7.9786 C.2         1 NP6       0.1785
      5 O1         -4.8150  -16.1137    8.6358 O.2         1 NP6      -0.3969
      6 N1         -6.9627  -16.1688    8.0463 N.am        1 NP6      -0.2639
      7 C5         -7.4342  -15.0416    8.8226 C.3         1 NP6       0.1483
      8 C6         -8.9336  -15.2656    9.2031 C.3         1 NP6       0.1223
      9 O2         -9.0551  -16.2311   10.2473 O.3         1 NP6      -0.3842
     10 C7         -9.6475  -13.9620    9.6464 C.3         1 NP6       0.1187
     11 O3        -11.0428  -14.2315    9.7444 O.3         1 NP6      -0.3859
     12 C8         -9.3902  -12.8600    8.5734 C.3         1 NP6       0.1375
     13 C9         -9.8788  -11.4463    8.9786 C.3         1 NP6       0.0780
     14 O4        -11.1169  -11.4624    9.6819 O.3         1 NP6      -0.3919
     15 O5         -7.9796  -12.6901    8.3182 O.3         1 NP6      -0.2871
     16 C10        -7.2155  -13.7928    8.0880 C.2         1 NP6       0.1893
     17 N2         -6.1479  -13.6322    7.3693 N.2         1 NP6      -0.1541
     18 O6         -5.6721  -12.5757    6.8234 O.3         1 NP6      -0.1506
     19 C11        -5.6220  -11.2928    7.2615 C.2         1 NP6       0.3788
     20 O7         -5.2556  -10.3429    6.3699 O.2         1 NP6      -0.3643
     21 N3         -5.8501  -11.0150    8.5669 N.am        1 NP6      -0.2057
     22 C12        -6.0041   -9.7998    9.1318 C.ar        1 NP6       0.0683
     23 C13        -7.0270   -8.9027    8.7281 C.ar        1 NP6      -0.0414
     24 C14        -7.2325   -7.7063    9.4265 C.ar        1 NP6      -0.0756
     25 C15        -6.4474   -7.3863   10.5543 C.ar        1 NP6      -0.0773
     26 C16        -5.4277   -8.2785   10.9641 C.ar        1 NP6      -0.0756
     27 C17        -5.2347   -9.4851   10.2785 C.ar        1 NP6      -0.0414
     28 H1         -5.9028  -16.0925    4.0503 H           1 NP6       0.0231
     29 H2         -4.8711  -15.5896    5.4168 H           1 NP6       0.0231
     30 H3         -6.6428  -15.5830    5.5732 H           1 NP6       0.0231
     31 H4         -5.0567  -18.1256    5.0231 H           1 NP6       0.0287
     32 H5         -6.7548  -18.0222    5.4595 H           1 NP6       0.0287
     33 H6         -4.3123  -17.9604    7.1537 H           1 NP6       0.0502
     34 H7         -5.9065  -18.6128    7.5107 H           1 NP6       0.0502
     35 H8         -7.6162  -16.5867    7.4482 H           1 NP6       0.1888
     36 H9         -6.8580  -14.9742    9.7387 H           1 NP6       0.0821
     37 H10        -9.4703  -15.6622    8.3276 H           1 NP6       0.0672
     38 H11        -8.7125  -17.0758    9.8727 H           1 NP6       0.2103
     39 H12        -9.2539  -13.6416   10.6121 H           1 NP6       0.0653
     40 H13       -11.2864  -13.9476   10.6602 H           1 NP6       0.2100
     41 H14        -9.8956  -13.1421    7.6428 H           1 NP6       0.0708
     42 H15       -10.0325  -10.8688    8.0593 H           1 NP6       0.0588
     43 H16        -9.1173  -10.9241    9.5813 H           1 NP6       0.0588
     44 H17       -10.9315  -11.9511   10.5036 H           1 NP6       0.2095
     45 H18        -5.8847  -11.7733    9.1732 H           1 NP6       0.2276
     46 H19        -7.6265   -9.1292    7.9392 H           1 NP6       0.0501
     47 H20        -7.9876   -7.0676    9.1425 H           1 NP6       0.0577
     48 H21        -6.6225   -6.5273   11.0727 H           1 NP6       0.0487
     49 H22        -4.8671   -8.0534   11.7896 H           1 NP6       0.0577
     50 H23        -4.5207  -10.1375   10.6125 H           1 NP6       0.0501
@<TRIPOS>BOND
     1     1     2   1
     2     2     3   1
     3     3     4   1
     4     4     5   2
     5     4     6  am
     6     6     7   1
     7     7     8   1
     8     7    16   1
     9     8     9   1
    10     8    10   1
    11    10    11   1
    12    10    12   1
    13    12    13   1
    14    12    15   1
    15    13    14   1
    16    15    16   1
    17    16    17   2
    18    17    18   1
    19    18    19   1
    20    19    20   2
    21    19    21  am
    22    21    22   1
    23    22    23  ar
    24    22    27  ar
    25    23    24  ar
    26    24    25  ar
    27    25    26  ar
    28    26    27  ar
    29     1    28   1
    30     1    29   1
    31     1    30   1
    32     2    31   1
    33     2    32   1
    34     3    33   1
    35     3    34   1
    36     6    35   1
    37     7    36   1
    38     8    37   1
    39     9    38   1
    40    10    39   1
    41    11    40   1
    42    12    41   1
    43    13    42   1
    44    13    43   1
    45    14    44   1
    46    21    45   1
    47    23    46   1
    48    24    47   1
    49    25    48   1
    50    26    49   1
    51    27    50   1
@<TRIPOS>SUBSTRUCTURE
     1  NP6      1

