@<TRIPOS>MOLECULE
2wca_ligand_052
    50    51
SMALL
GAST_HUCK
****
This file was generated by PARSER (from files_GN.cpp)

@<TRIPOS>ATOM
      1 C2         -1.8311  -11.3445   11.1896 C.3         1 NP6      -0.0632
      2 C1         -1.3236  -10.7229    9.8666 C.3         1 NP6      -0.0389
      3 C3         -1.9402   -9.3419    9.5181 C.3         1 NP6       0.0372
      4 C4         -3.3085   -9.4140    9.0307 C.2         1 NP6       0.1785
      5 O1         -3.5077   -9.3362    7.8249 O.2         1 NP6      -0.3969
      6 N1         -4.3196   -9.5049    9.8883 N.am        1 NP6      -0.2639
      7 C5         -5.7278   -9.5328    9.5732 C.3         1 NP6       0.1483
      8 C6         -6.5142   -9.1757   10.8681 C.3         1 NP6       0.1223
      9 O2         -6.2115   -7.8410   11.2756 O.3         1 NP6      -0.3842
     10 C7         -8.0338   -9.3291   10.6268 C.3         1 NP6       0.1187
     11 O3         -8.7652   -8.9870   11.8046 O.3         1 NP6      -0.3859
     12 C8         -8.3439  -10.7906   10.1691 C.3         1 NP6       0.1375
     13 C9         -9.6179  -10.8758    9.2889 C.3         1 NP6       0.0780
     14 O4        -10.1084  -12.2146    9.2232 O.3         1 NP6      -0.3919
     15 O5         -7.2584  -11.4734    9.4854 O.3         1 NP6      -0.2871
     16 C10        -6.1865  -10.8053    9.0084 C.2         1 NP6       0.1893
     17 N2         -5.4711  -11.3691    8.1015 N.2         1 NP6      -0.1541
     18 O6         -5.6582  -12.4198    7.3953 O.3         1 NP6      -0.1506
     19 C11        -6.7742  -12.9146    6.8011 C.2         1 NP6       0.3788
     20 O7         -6.6485  -14.1152    6.1926 O.2         1 NP6      -0.3643
     21 N3         -7.8812  -12.1492    6.6747 N.am        1 NP6      -0.2057
     22 C12        -9.0830  -12.4618    6.1101 C.ar        1 NP6       0.0683
     23 C13        -9.8829  -11.3812    5.6736 C.ar        1 NP6      -0.0414
     24 C14       -11.1819  -11.5974    5.1784 C.ar        1 NP6      -0.0756
     25 C15       -11.6956  -12.9037    5.1071 C.ar        1 NP6      -0.0773
     26 C16       -10.9191  -13.9898    5.5473 C.ar        1 NP6      -0.0756
     27 C17        -9.6208  -13.7713    6.0485 C.ar        1 NP6      -0.0414
     28 H1         -1.3080  -12.2843   11.3772 H           1 NP6       0.0231
     29 H2         -2.9012  -11.5509   11.1409 H           1 NP6       0.0231
     30 H3         -1.6368  -10.6681   12.0243 H           1 NP6       0.0231
     31 H4         -1.5010  -11.4290    9.0488 H           1 NP6       0.0287
     32 H5         -0.2394  -10.6033    9.9603 H           1 NP6       0.0287
     33 H6         -1.3078   -8.8806    8.7540 H           1 NP6       0.0502
     34 H7         -1.8955   -8.6880   10.3913 H           1 NP6       0.0502
     35 H8         -4.0873   -9.4959   10.8310 H           1 NP6       0.1888
     36 H9         -5.9377   -8.7528    8.8313 H           1 NP6       0.0821
     37 H10        -6.2087   -9.8535   11.6778 H           1 NP6       0.0672
     38 H11        -6.3827   -7.8471   12.2407 H           1 NP6       0.2103
     39 H12        -8.3257   -8.6178    9.8465 H           1 NP6       0.0653
     40 H13        -8.3920   -9.5418   12.5240 H           1 NP6       0.2100
     41 H14        -8.5329  -11.3812   11.0713 H           1 NP6       0.0708
     42 H15        -9.3891  -10.5214    8.2848 H           1 NP6       0.0588
     43 H16       -10.4108  -10.2512    9.6986 H           1 NP6       0.0588
     44 H17       -10.3686  -12.4397   10.1444 H           1 NP6       0.2095
     45 H18        -7.7754  -11.2243    6.9531 H           1 NP6       0.2276
     46 H19        -9.5250  -10.4240    5.7204 H           1 NP6       0.0501
     47 H20       -11.7550  -10.8048    4.8831 H           1 NP6       0.0577
     48 H21       -12.6430  -13.0616    4.7548 H           1 NP6       0.0487
     49 H22       -11.3019  -14.9381    5.5170 H           1 NP6       0.0577
     50 H23        -9.0971  -14.5696    6.4078 H           1 NP6       0.0501
@<TRIPOS>BOND
     1     1     2   1
     2     2     3   1
     3     3     4   1
     4     4     5   2
     5     4     6  am
     6     6     7   1
     7     7     8   1
     8     7    16   1
     9     8     9   1
    10     8    10   1
    11    10    11   1
    12    10    12   1
    13    12    13   1
    14    12    15   1
    15    13    14   1
    16    15    16   1
    17    16    17   2
    18    17    18   1
    19    18    19   1
    20    19    20   2
    21    19    21  am
    22    21    22   1
    23    22    23  ar
    24    22    27  ar
    25    23    24  ar
    26    24    25  ar
    27    25    26  ar
    28    26    27  ar
    29     1    28   1
    30     1    29   1
    31     1    30   1
    32     2    31   1
    33     2    32   1
    34     3    33   1
    35     3    34   1
    36     6    35   1
    37     7    36   1
    38     8    37   1
    39     9    38   1
    40    10    39   1
    41    11    40   1
    42    12    41   1
    43    13    42   1
    44    13    43   1
    45    14    44   1
    46    21    45   1
    47    23    46   1
    48    24    47   1
    49    25    48   1
    50    26    49   1
    51    27    50   1
@<TRIPOS>SUBSTRUCTURE
     1  NP6      1

