@<TRIPOS>MOLECULE
2wca_ligand_088
    50    51
SMALL
GAST_HUCK
****
This file was generated by PARSER (from files_GN.cpp)

@<TRIPOS>ATOM
      1 C2         -3.5722  -18.6844    6.4018 C.3         1 NP6      -0.0632
      2 C1         -4.1594  -17.6401    5.4230 C.3         1 NP6      -0.0389
      3 C3         -5.5495  -17.0597    5.8205 C.3         1 NP6       0.0372
      4 C4         -5.6365  -16.2992    7.0628 C.2         1 NP6       0.1785
      5 O1         -4.6854  -16.2381    7.8294 O.2         1 NP6      -0.3969
      6 N1         -6.7693  -15.6688    7.3487 N.am        1 NP6      -0.2639
      7 C5         -7.0748  -14.9184    8.5452 C.3         1 NP6       0.1483
      8 C6         -8.5802  -14.5094    8.5286 C.3         1 NP6       0.1223
      9 O2         -9.4165  -15.6704    8.5322 O.3         1 NP6      -0.3842
     10 C7         -8.9503  -13.6041    9.7470 C.3         1 NP6       0.1187
     11 O3        -10.2792  -13.1050    9.5685 O.3         1 NP6      -0.3859
     12 C8         -7.9000  -12.4507    9.8976 C.3         1 NP6       0.1375
     13 C9         -8.0623  -11.6569   11.2161 C.3         1 NP6       0.0780
     14 O4         -6.9327  -10.8072   11.4305 O.3         1 NP6      -0.3919
     15 O5         -6.5497  -12.9674    9.8540 O.3         1 NP6      -0.2871
     16 C10        -6.2849  -13.7079    8.7639 C.2         1 NP6       0.1893
     17 N2         -5.3377  -13.3651    7.9718 N.2         1 NP6      -0.1541
     18 O6         -4.6228  -12.3193    8.0961 O.3         1 NP6      -0.1506
     19 C11        -3.5189  -12.0540    7.3543 C.2         1 NP6       0.3788
     20 O7         -2.9245  -10.8671    7.6052 O.2         1 NP6      -0.3643
     21 N3         -3.0766  -12.9365    6.4238 N.am        1 NP6      -0.2057
     22 C12        -1.9827  -12.8932    5.6083 C.ar        1 NP6       0.0683
     23 C13        -0.8405  -12.0742    5.7963 C.ar        1 NP6      -0.0414
     24 C14         0.2275  -12.1027    4.8797 C.ar        1 NP6      -0.0756
     25 C15         0.1813  -12.9638    3.7705 C.ar        1 NP6      -0.0773
     26 C16        -0.9311  -13.8008    3.5814 C.ar        1 NP6      -0.0756
     27 C17        -1.9989  -13.7673    4.4966 C.ar        1 NP6      -0.0414
     28 H1         -2.6692  -19.1228    5.9687 H           1 NP6       0.0231
     29 H2         -4.2916  -19.4831    6.5777 H           1 NP6       0.0231
     30 H3         -3.3060  -18.2285    7.3601 H           1 NP6       0.0231
     31 H4         -4.2568  -18.1201    4.4469 H           1 NP6       0.0287
     32 H5         -3.4432  -16.8201    5.3124 H           1 NP6       0.0287
     33 H6         -6.2725  -17.8803    5.8625 H           1 NP6       0.0502
     34 H7         -5.8672  -16.4037    5.0035 H           1 NP6       0.0502
     35 H8         -7.4867  -15.7594    6.6982 H           1 NP6       0.1888
     36 H9         -6.9101  -15.5774    9.4030 H           1 NP6       0.0821
     37 H10        -8.7963  -13.9538    7.6112 H           1 NP6       0.0672
     38 H11        -9.2840  -16.0899    7.6548 H           1 NP6       0.2103
     39 H12        -8.9362  -14.2165   10.6541 H           1 NP6       0.0653
     40 H13       -10.1763  -12.2047    9.1949 H           1 NP6       0.2100
     41 H14        -8.0302  -11.7440    9.0695 H           1 NP6       0.0708
     42 H15        -8.1494  -12.3368   12.0655 H           1 NP6       0.0588
     43 H16        -8.9604  -11.0334   11.1754 H           1 NP6       0.0588
     44 H17        -7.0781  -10.3826   12.3041 H           1 NP6       0.2095
     45 H18        -3.6420  -13.7189    6.3051 H           1 NP6       0.2276
     46 H19        -0.7567  -11.4627    6.6074 H           1 NP6       0.0501
     47 H20         1.0434  -11.5029    5.0272 H           1 NP6       0.0577
     48 H21         0.9603  -12.9844    3.1064 H           1 NP6       0.0487
     49 H22        -0.9608  -14.4361    2.7795 H           1 NP6       0.0577
     50 H23        -2.8005  -14.3859    4.3355 H           1 NP6       0.0501
@<TRIPOS>BOND
     1     1     2   1
     2     2     3   1
     3     3     4   1
     4     4     5   2
     5     4     6  am
     6     6     7   1
     7     7     8   1
     8     7    16   1
     9     8     9   1
    10     8    10   1
    11    10    11   1
    12    10    12   1
    13    12    13   1
    14    12    15   1
    15    13    14   1
    16    15    16   1
    17    16    17   2
    18    17    18   1
    19    18    19   1
    20    19    20   2
    21    19    21  am
    22    21    22   1
    23    22    23  ar
    24    22    27  ar
    25    23    24  ar
    26    24    25  ar
    27    25    26  ar
    28    26    27  ar
    29     1    28   1
    30     1    29   1
    31     1    30   1
    32     2    31   1
    33     2    32   1
    34     3    33   1
    35     3    34   1
    36     6    35   1
    37     7    36   1
    38     8    37   1
    39     9    38   1
    40    10    39   1
    41    11    40   1
    42    12    41   1
    43    13    42   1
    44    13    43   1
    45    14    44   1
    46    21    45   1
    47    23    46   1
    48    24    47   1
    49    25    48   1
    50    26    49   1
    51    27    50   1
@<TRIPOS>SUBSTRUCTURE
     1  NP6      1

