@<TRIPOS>MOLECULE
2wca_ligand_013
    50    51
SMALL
GAST_HUCK
****
This file was generated by PARSER (from files_GN.cpp)

@<TRIPOS>ATOM
      1 C2         -9.8744  -19.6078    7.5849 C.3         1 NP6      -0.0632
      2 C1         -8.4476  -19.0202    7.6181 C.3         1 NP6      -0.0389
      3 C3         -8.2846  -17.7143    8.4500 C.3         1 NP6       0.0372
      4 C4         -8.5452  -17.8331    9.8788 C.2         1 NP6       0.1785
      5 O1         -9.3051  -17.0371   10.4099 O.2         1 NP6      -0.3969
      6 N1         -7.9068  -18.7619   10.5868 N.am        1 NP6      -0.2639
      7 C5         -8.0101  -19.0332   11.9964 C.3         1 NP6       0.1483
      8 C6         -6.9290  -20.0987   12.3662 C.3         1 NP6       0.1223
      9 O2         -5.6281  -19.5279   12.1970 O.3         1 NP6      -0.3842
     10 C7         -7.0757  -20.6388   13.8172 C.3         1 NP6       0.1187
     11 O3         -6.1676  -21.7224   14.0206 O.3         1 NP6      -0.3859
     12 C8         -8.5530  -21.0908   14.0311 C.3         1 NP6       0.1375
     13 C9         -8.8750  -21.5487   15.4721 C.3         1 NP6       0.0780
     14 O4         -8.5360  -20.5638   16.4452 O.3         1 NP6      -0.3919
     15 O5         -9.4424  -20.0071   13.7036 O.3         1 NP6      -0.2871
     16 C10        -9.3230  -19.5188   12.4500 C.2         1 NP6       0.1893
     17 N2        -10.3982  -19.2570   11.8123 N.2         1 NP6      -0.1541
     18 O6        -11.5505  -19.6432   12.1937 O.3         1 NP6      -0.1506
     19 C11       -12.7266  -19.0804   11.8228 C.2         1 NP6       0.3788
     20 O7        -13.8377  -19.6891   12.2904 O.2         1 NP6      -0.3643
     21 N3        -12.7607  -17.9506   11.0843 N.am        1 NP6      -0.2057
     22 C12       -13.8324  -17.1397   10.8481 C.ar        1 NP6       0.0683
     23 C13       -14.9124  -16.9922   11.7552 C.ar        1 NP6      -0.0414
     24 C14       -15.9771  -16.1151   11.4819 C.ar        1 NP6      -0.0756
     25 C15       -15.9694  -15.3570   10.2979 C.ar        1 NP6      -0.0773
     26 C16       -14.8831  -15.4567    9.4078 C.ar        1 NP6      -0.0756
     27 C17       -13.8195  -16.3347    9.6853 C.ar        1 NP6      -0.0414
     28 H1         -9.8809  -20.5083    6.9654 H           1 NP6       0.0231
     29 H2        -10.5795  -18.8896    7.1629 H           1 NP6       0.0231
     30 H3        -10.2040  -19.8798    8.5892 H           1 NP6       0.0231
     31 H4         -8.1530  -18.8071    6.5901 H           1 NP6       0.0287
     32 H5         -7.7670  -19.7858    7.9918 H           1 NP6       0.0287
     33 H6         -8.9301  -16.9416    8.0171 H           1 NP6       0.0502
     34 H7         -7.2563  -17.3656    8.3371 H           1 NP6       0.0502
     35 H8         -7.2742  -19.3099   10.0949 H           1 NP6       0.1888
     36 H9         -7.7903  -18.1177   12.5487 H           1 NP6       0.0821
     37 H10        -7.0144  -20.9522   11.6801 H           1 NP6       0.0672
     38 H11        -4.9966  -20.2567   12.3949 H           1 NP6       0.2103
     39 H12        -6.8263  -19.8322   14.5178 H           1 NP6       0.0653
     40 H13        -6.2722  -21.9739   14.9616 H           1 NP6       0.2100
     41 H14        -8.7682  -21.9357   13.3676 H           1 NP6       0.0708
     42 H15        -8.3345  -22.4660   15.7029 H           1 NP6       0.0588
     43 H16        -9.9434  -21.7582   15.5581 H           1 NP6       0.0588
     44 H17        -8.8472  -20.9430   17.2979 H           1 NP6       0.2095
     45 H18       -11.9173  -17.6649   10.6918 H           1 NP6       0.2276
     46 H19       -14.9102  -17.4918   12.6388 H           1 NP6       0.0501
     47 H20       -16.7424  -16.0185   12.1491 H           1 NP6       0.0577
     48 H21       -16.7529  -14.7342   10.0980 H           1 NP6       0.0487
     49 H22       -14.8748  -14.8874    8.5576 H           1 NP6       0.0577
     50 H23       -13.0373  -16.3908    9.0267 H           1 NP6       0.0501
@<TRIPOS>BOND
     1     1     2   1
     2     2     3   1
     3     3     4   1
     4     4     5   2
     5     4     6  am
     6     6     7   1
     7     7     8   1
     8     7    16   1
     9     8     9   1
    10     8    10   1
    11    10    11   1
    12    10    12   1
    13    12    13   1
    14    12    15   1
    15    13    14   1
    16    15    16   1
    17    16    17   2
    18    17    18   1
    19    18    19   1
    20    19    20   2
    21    19    21  am
    22    21    22   1
    23    22    23  ar
    24    22    27  ar
    25    23    24  ar
    26    24    25  ar
    27    25    26  ar
    28    26    27  ar
    29     1    28   1
    30     1    29   1
    31     1    30   1
    32     2    31   1
    33     2    32   1
    34     3    33   1
    35     3    34   1
    36     6    35   1
    37     7    36   1
    38     8    37   1
    39     9    38   1
    40    10    39   1
    41    11    40   1
    42    12    41   1
    43    13    42   1
    44    13    43   1
    45    14    44   1
    46    21    45   1
    47    23    46   1
    48    24    47   1
    49    25    48   1
    50    26    49   1
    51    27    50   1
@<TRIPOS>SUBSTRUCTURE
     1  NP6      1

