@<TRIPOS>MOLECULE
2wca_ligand_091
    50    51
SMALL
GAST_HUCK
****
This file was generated by PARSER (from files_GN.cpp)

@<TRIPOS>ATOM
      1 C2         -9.8863  -19.5075    7.1379 C.3         1 NP6      -0.0632
      2 C1        -10.0782  -18.1714    7.8956 C.3         1 NP6      -0.0389
      3 C3         -8.7788  -17.7028    8.6066 C.3         1 NP6       0.0372
      4 C4         -8.9154  -16.3877    9.2092 C.2         1 NP6       0.1785
      5 O1         -9.0911  -16.3000   10.4174 O.2         1 NP6      -0.3969
      6 N1         -8.8230  -15.3053    8.4424 N.am        1 NP6      -0.2639
      7 C5         -8.8945  -13.9370    8.8930 C.3         1 NP6       0.1483
      8 C6         -9.3895  -13.0085    7.7419 C.3         1 NP6       0.1223
      9 O2        -10.6893  -13.4202    7.3132 O.3         1 NP6      -0.3842
     10 C7         -9.4175  -11.5173    8.1988 C.3         1 NP6       0.1187
     11 O3         -9.7034  -10.6565    7.0944 O.3         1 NP6      -0.3859
     12 C8         -8.0417  -11.1444    8.8400 C.3         1 NP6       0.1375
     13 C9         -8.0491   -9.7475    9.5181 C.3         1 NP6       0.0780
     14 O4         -8.7361   -9.7556   10.7686 O.3         1 NP6      -0.3919
     15 O5         -7.6340  -12.1135    9.8370 O.3         1 NP6      -0.2871
     16 C10        -7.6410  -13.3904    9.4091 C.2         1 NP6       0.1893
     17 N2         -6.5565  -14.0709    9.4270 N.2         1 NP6      -0.1541
     18 O6         -5.4312  -13.6140    9.8229 O.3         1 NP6      -0.1506
     19 C11        -4.2829  -14.3319    9.8801 C.2         1 NP6       0.3788
     20 O7         -3.1791  -13.6788   10.3108 O.2         1 NP6      -0.3643
     21 N3         -4.2854  -15.6465    9.5394 N.am        1 NP6      -0.2057
     22 C12        -3.2504  -16.5318    9.4982 C.ar        1 NP6       0.0683
     23 C13        -1.8992  -16.1781    9.2606 C.ar        1 NP6      -0.0414
     24 C14        -0.9050  -17.1675    9.1775 C.ar        1 NP6      -0.0756
     25 C15        -1.2448  -18.5227    9.3276 C.ar        1 NP6      -0.0773
     26 C16        -2.5815  -18.8884    9.5630 C.ar        1 NP6      -0.0756
     27 C17        -3.5780  -17.8975    9.6431 C.ar        1 NP6      -0.0414
     28 H1        -10.8199  -19.7931    6.6492 H           1 NP6       0.0231
     29 H2         -9.5989  -20.3001    7.8302 H           1 NP6       0.0231
     30 H3         -9.1138  -19.4030    6.3742 H           1 NP6       0.0231
     31 H4        -10.8726  -18.2999    8.6367 H           1 NP6       0.0287
     32 H5        -10.4097  -17.4140    7.1804 H           1 NP6       0.0287
     33 H6         -7.9575  -17.6782    7.8872 H           1 NP6       0.0502
     34 H7         -8.5140  -18.4388    9.3705 H           1 NP6       0.0502
     35 H8         -8.6842  -15.4609    7.4919 H           1 NP6       0.1888
     36 H9         -9.6303  -13.8697    9.6995 H           1 NP6       0.0821
     37 H10        -8.7156  -13.1100    6.8834 H           1 NP6       0.0672
     38 H11       -10.8367  -12.9738    6.4507 H           1 NP6       0.2103
     39 H12       -10.2085  -11.3865    8.9418 H           1 NP6       0.0653
     40 H13       -10.5964  -10.9212    6.7855 H           1 NP6       0.2100
     41 H14        -7.2882  -11.1154    8.0450 H           1 NP6       0.0708
     42 H15        -8.5260   -9.0087    8.8684 H           1 NP6       0.0588
     43 H16        -7.0214   -9.4208    9.7005 H           1 NP6       0.0588
     44 H17        -8.1570  -10.2554   11.3827 H           1 NP6       0.2095
     45 H18        -5.1625  -16.0177    9.3541 H           1 NP6       0.2276
     46 H19        -1.6299  -15.2051    9.1068 H           1 NP6       0.0501
     47 H20         0.0632  -16.9010    8.9865 H           1 NP6       0.0577
     48 H21        -0.5244  -19.2413    9.2558 H           1 NP6       0.0487
     49 H22        -2.8334  -19.8734    9.6612 H           1 NP6       0.0577
     50 H23        -4.5490  -18.1798    9.8107 H           1 NP6       0.0501
@<TRIPOS>BOND
     1     1     2   1
     2     2     3   1
     3     3     4   1
     4     4     5   2
     5     4     6  am
     6     6     7   1
     7     7     8   1
     8     7    16   1
     9     8     9   1
    10     8    10   1
    11    10    11   1
    12    10    12   1
    13    12    13   1
    14    12    15   1
    15    13    14   1
    16    15    16   1
    17    16    17   2
    18    17    18   1
    19    18    19   1
    20    19    20   2
    21    19    21  am
    22    21    22   1
    23    22    23  ar
    24    22    27  ar
    25    23    24  ar
    26    24    25  ar
    27    25    26  ar
    28    26    27  ar
    29     1    28   1
    30     1    29   1
    31     1    30   1
    32     2    31   1
    33     2    32   1
    34     3    33   1
    35     3    34   1
    36     6    35   1
    37     7    36   1
    38     8    37   1
    39     9    38   1
    40    10    39   1
    41    11    40   1
    42    12    41   1
    43    13    42   1
    44    13    43   1
    45    14    44   1
    46    21    45   1
    47    23    46   1
    48    24    47   1
    49    25    48   1
    50    26    49   1
    51    27    50   1
@<TRIPOS>SUBSTRUCTURE
     1  NP6      1

