@<TRIPOS>MOLECULE
2wca_ligand_028
    50    51
SMALL
GAST_HUCK
****
This file was generated by PARSER (from files_GN.cpp)

@<TRIPOS>ATOM
      1 C2        -11.8815  -11.4379    3.7203 C.3         1 NP6      -0.0632
      2 C1        -11.2281  -11.1097    5.0803 C.3         1 NP6      -0.0389
      3 C3         -9.6805  -11.2000    5.0326 C.3         1 NP6       0.0372
      4 C4         -9.0763  -11.0779    6.3509 C.2         1 NP6       0.1785
      5 O1         -8.7759   -9.9658    6.7538 O.2         1 NP6      -0.3969
      6 N1         -8.8363  -12.1708    7.0662 N.am        1 NP6      -0.2639
      7 C5         -8.2716  -12.2247    8.3936 C.3         1 NP6       0.1483
      8 C6         -9.1830  -11.5028    9.4363 C.3         1 NP6       0.1223
      9 O2        -10.4346  -12.1860    9.5553 O.3         1 NP6      -0.3842
     10 C7         -8.4412  -11.4024   10.7974 C.3         1 NP6       0.1187
     11 O3         -9.2464  -10.7051   11.7448 O.3         1 NP6      -0.3859
     12 C8         -7.0634  -10.6832   10.5930 C.3         1 NP6       0.1375
     13 C9         -5.9612  -11.2293   11.5413 C.3         1 NP6       0.0780
     14 O4         -4.7731  -10.4536   11.4318 O.3         1 NP6      -0.3919
     15 O5         -6.5836  -10.6724    9.2264 O.3         1 NP6      -0.2871
     16 C10        -6.9018  -11.7234    8.4429 C.2         1 NP6       0.1893
     17 N2         -5.9986  -12.2679    7.7109 N.2         1 NP6      -0.1541
     18 O6         -4.7764  -11.8826    7.6602 O.3         1 NP6      -0.1506
     19 C11        -3.7743  -12.3252    8.4602 C.2         1 NP6       0.3788
     20 O7         -2.5609  -11.7613    8.2583 O.2         1 NP6      -0.3643
     21 N3         -4.0094  -13.2831    9.3845 N.am        1 NP6      -0.2057
     22 C12        -3.2011  -13.7848   10.3674 C.ar        1 NP6       0.0683
     23 C13        -3.5320  -15.0699   10.8528 C.ar        1 NP6      -0.0414
     24 C14        -2.8223  -15.6470   11.9206 C.ar        1 NP6      -0.0756
     25 C15        -1.7625  -14.9433   12.5197 C.ar        1 NP6      -0.0773
     26 C16        -1.4160  -13.6641   12.0480 C.ar        1 NP6      -0.0756
     27 C17        -2.1356  -13.0853   10.9827 C.ar        1 NP6      -0.0414
     28 H1        -12.9640  -11.3196    3.7935 H           1 NP6       0.0231
     29 H2        -11.6605  -12.4681    3.4307 H           1 NP6       0.0231
     30 H3        -11.5120  -10.7681    2.9415 H           1 NP6       0.0231
     31 H4        -11.6198  -11.8101    5.8271 H           1 NP6       0.0287
     32 H5        -11.5152  -10.0995    5.3721 H           1 NP6       0.0287
     33 H6         -9.3088  -10.3993    4.3915 H           1 NP6       0.0502
     34 H7         -9.3765  -12.1511    4.5814 H           1 NP6       0.0502
     35 H8         -9.0655  -13.0181    6.6610 H           1 NP6       0.1888
     36 H9         -8.2332  -13.2905    8.6746 H           1 NP6       0.0821
     37 H10        -9.4131  -10.4926    9.1022 H           1 NP6       0.0672
     38 H11       -10.4488  -12.5881   10.4454 H           1 NP6       0.2103
     39 H12        -8.2844  -12.4172   11.1769 H           1 NP6       0.0653
     40 H13        -8.6363  -10.4779   12.4781 H           1 NP6       0.2100
     41 H14        -7.1957   -9.6232   10.8513 H           1 NP6       0.0708
     42 H15        -5.7319  -12.2644   11.2879 H           1 NP6       0.0588
     43 H16        -6.3066  -11.1909   12.5766 H           1 NP6       0.0588
     44 H17        -4.1455  -10.8542   12.0671 H           1 NP6       0.2095
     45 H18        -4.8961  -13.6787    9.3489 H           1 NP6       0.2276
     46 H19        -4.2986  -15.5965   10.4307 H           1 NP6       0.0501
     47 H20        -3.0779  -16.5756   12.2631 H           1 NP6       0.0577
     48 H21        -1.2435  -15.3619   13.2967 H           1 NP6       0.0487
     49 H22        -0.6559  -13.1494   12.4920 H           1 NP6       0.0577
     50 H23        -1.8885  -12.1388   10.6896 H           1 NP6       0.0501
@<TRIPOS>BOND
     1     1     2   1
     2     2     3   1
     3     3     4   1
     4     4     5   2
     5     4     6  am
     6     6     7   1
     7     7     8   1
     8     7    16   1
     9     8     9   1
    10     8    10   1
    11    10    11   1
    12    10    12   1
    13    12    13   1
    14    12    15   1
    15    13    14   1
    16    15    16   1
    17    16    17   2
    18    17    18   1
    19    18    19   1
    20    19    20   2
    21    19    21  am
    22    21    22   1
    23    22    23  ar
    24    22    27  ar
    25    23    24  ar
    26    24    25  ar
    27    25    26  ar
    28    26    27  ar
    29     1    28   1
    30     1    29   1
    31     1    30   1
    32     2    31   1
    33     2    32   1
    34     3    33   1
    35     3    34   1
    36     6    35   1
    37     7    36   1
    38     8    37   1
    39     9    38   1
    40    10    39   1
    41    11    40   1
    42    12    41   1
    43    13    42   1
    44    13    43   1
    45    14    44   1
    46    21    45   1
    47    23    46   1
    48    24    47   1
    49    25    48   1
    50    26    49   1
    51    27    50   1
@<TRIPOS>SUBSTRUCTURE
     1  NP6      1

