@<TRIPOS>MOLECULE
2wca_ligand_029
    50    51
SMALL
GAST_HUCK
****
This file was generated by PARSER (from files_GN.cpp)

@<TRIPOS>ATOM
      1 C2         -7.2384  -24.6504    9.3516 C.3         1 NP6      -0.0632
      2 C1         -8.4538  -24.2228   10.2089 C.3         1 NP6      -0.0389
      3 C3         -8.3820  -22.7598   10.7186 C.3         1 NP6       0.0372
      4 C4         -8.6428  -21.7087    9.7426 C.2         1 NP6       0.1785
      5 O1         -9.3748  -21.9293    8.7770 O.2         1 NP6      -0.3969
      6 N1         -8.2540  -20.4736   10.0221 N.am        1 NP6      -0.2639
      7 C5         -8.4850  -19.2795    9.2485 C.3         1 NP6       0.1483
      8 C6         -7.1321  -18.5254    9.0676 C.3         1 NP6       0.1223
      9 O2         -6.3220  -19.2306    8.1241 O.3         1 NP6      -0.3842
     10 C7         -7.3321  -17.0552    8.6070 C.3         1 NP6       0.1187
     11 O3         -6.0848  -16.3543    8.6572 O.3         1 NP6      -0.3859
     12 C8         -8.4098  -16.3820    9.5123 C.3         1 NP6       0.1375
     13 C9         -8.7247  -14.9169    9.1241 C.3         1 NP6       0.0780
     14 O4         -9.5015  -14.8292    7.9330 O.3         1 NP6      -0.3919
     15 O5         -9.6337  -17.1483    9.4628 O.3         1 NP6      -0.2871
     16 C10        -9.5019  -18.4256    9.8643 C.2         1 NP6       0.1893
     17 N2        -10.4193  -18.9350   10.6018 N.2         1 NP6      -0.1541
     18 O6        -11.4911  -18.3280   10.9251 O.3         1 NP6      -0.1506
     19 C11       -12.2986  -18.7091   11.9454 C.2         1 NP6       0.3788
     20 O7        -11.9126  -19.6948   12.7942 O.2         1 NP6      -0.3643
     21 N3        -13.5174  -18.1617   12.1343 N.am        1 NP6      -0.2057
     22 C12       -14.1678  -17.3405   11.2728 C.ar        1 NP6       0.0683
     23 C13       -15.4395  -17.7472   10.8123 C.ar        1 NP6      -0.0414
     24 C14       -16.1415  -16.9737    9.8733 C.ar        1 NP6      -0.0756
     25 C15       -15.5870  -15.7721    9.4002 C.ar        1 NP6      -0.0773
     26 C16       -14.3407  -15.3359    9.8830 C.ar        1 NP6      -0.0756
     27 C17       -13.6279  -16.1156   10.8100 C.ar        1 NP6      -0.0414
     28 H1         -7.3651  -25.6853    9.0374 H           1 NP6       0.0231
     29 H2         -6.3174  -24.5687    9.9303 H           1 NP6       0.0231
     30 H3         -7.1495  -24.0271    8.4595 H           1 NP6       0.0231
     31 H4         -8.5130  -24.8902   11.0738 H           1 NP6       0.0287
     32 H5         -9.3682  -24.3600    9.6324 H           1 NP6       0.0287
     33 H6         -7.3875  -22.6001   11.1538 H           1 NP6       0.0502
     34 H7         -9.1100  -22.6401   11.5286 H           1 NP6       0.0502
     35 H8         -7.7618  -20.3557   10.8518 H           1 NP6       0.1888
     36 H9         -8.8645  -19.5201    8.2505 H           1 NP6       0.0821
     37 H10        -6.6021  -18.5243   10.0221 H           1 NP6       0.0672
     38 H11        -5.4295  -18.8298    8.1998 H           1 NP6       0.2103
     39 H12        -7.6753  -17.0568    7.5727 H           1 NP6       0.0653
     40 H13        -5.8273  -16.3446    9.6014 H           1 NP6       0.2100
     41 H14        -8.0380  -16.3609   10.5455 H           1 NP6       0.0708
     42 H15        -7.8015  -14.3460    8.9934 H           1 NP6       0.0588
     43 H16        -9.2940  -14.4456    9.9261 H           1 NP6       0.0588
     44 H17        -9.0716  -15.4324    7.2851 H           1 NP6       0.2095
     45 H18       -14.0347  -18.5191   12.8674 H           1 NP6       0.2276
     46 H19       -15.8404  -18.6297   11.1385 H           1 NP6       0.0501
     47 H20       -17.0487  -17.2937    9.5259 H           1 NP6       0.0577
     48 H21       -16.0935  -15.2216    8.7025 H           1 NP6       0.0487
     49 H22       -13.9527  -14.4493    9.5545 H           1 NP6       0.0577
     50 H23       -12.7257  -15.7862   11.1554 H           1 NP6       0.0501
@<TRIPOS>BOND
     1     1     2   1
     2     2     3   1
     3     3     4   1
     4     4     5   2
     5     4     6  am
     6     6     7   1
     7     7     8   1
     8     7    16   1
     9     8     9   1
    10     8    10   1
    11    10    11   1
    12    10    12   1
    13    12    13   1
    14    12    15   1
    15    13    14   1
    16    15    16   1
    17    16    17   2
    18    17    18   1
    19    18    19   1
    20    19    20   2
    21    19    21  am
    22    21    22   1
    23    22    23  ar
    24    22    27  ar
    25    23    24  ar
    26    24    25  ar
    27    25    26  ar
    28    26    27  ar
    29     1    28   1
    30     1    29   1
    31     1    30   1
    32     2    31   1
    33     2    32   1
    34     3    33   1
    35     3    34   1
    36     6    35   1
    37     7    36   1
    38     8    37   1
    39     9    38   1
    40    10    39   1
    41    11    40   1
    42    12    41   1
    43    13    42   1
    44    13    43   1
    45    14    44   1
    46    21    45   1
    47    23    46   1
    48    24    47   1
    49    25    48   1
    50    26    49   1
    51    27    50   1
@<TRIPOS>SUBSTRUCTURE
     1  NP6      1

