@<TRIPOS>MOLECULE
2weg_ligand_001
    17    17
SMALL
GAST_HUCK
****
This file was generated by PARSER (from files_GN.cpp)

@<TRIPOS>ATOM
      1 C1         16.3246    7.1060   14.7080 C.ar        1 FBV      -0.0635
      2 C2         17.4993    6.5247   15.2156 C.ar        1 FBV      -0.0640
      3 C3         17.4730    5.2134   15.7236 C.ar        1 FBV      -0.0369
      4 C4         16.2713    4.4681   15.7252 C.ar        1 FBV       0.1411
      5 C5         15.0920    5.0625   15.2145 C.ar        1 FBV       0.1588
      6 C6         15.1229    6.3766   14.7072 C.ar        1 FBV      -0.0262
      7 S          16.2856    2.8267   16.3234 S.o2        1 FBV       0.0666
      8 N2         17.7503    2.0793   15.9809 N.am        1 FBV      -0.2614
      9 O1         16.1037    2.8450   17.9041 O.2         1 FBV      -0.1511
     10 O2         15.1438    1.9349   15.6710 O.2         1 FBV      -0.1511
     11 F          13.9526    4.4240   15.1865 F           1 FBV      -0.1813
     12 H1         16.3440    8.0582   14.3374 H           1 FBV       0.0607
     13 H2         18.3739    7.0543   15.2107 H           1 FBV       0.0583
     14 H3         18.3415    4.8065   16.0810 H           1 FBV       0.0627
     15 H4         14.2711    6.8035   14.3338 H           1 FBV       0.0604
     16 H5         17.9524    1.2113   16.3621 H           1 FBV       0.1634
     17 H6         18.3860    2.5132   15.3911 H           1 FBV       0.1634
@<TRIPOS>BOND
     1     1     2  ar
     2     1     6  ar
     3     2     3  ar
     4     3     4  ar
     5     4     5  ar
     6     4     7   1
     7     5     6  ar
     8     5    11   1
     9     7     8  am
    10     7     9   2
    11     7    10   2
    12     1    12   1
    13     2    13   1
    14     3    14   1
    15     6    15   1
    16     8    16   1
    17     8    17   1
@<TRIPOS>SUBSTRUCTURE
     1  FBV      1

