@<TRIPOS>MOLECULE
2weg_ligand_012
    17    17
SMALL
GAST_HUCK
****
This file was generated by PARSER (from files_GN.cpp)

@<TRIPOS>ATOM
      1 C1         15.8158    4.0055   13.5343 C.ar        1 FBV      -0.0635
      2 C2         16.3501    4.7371   12.4591 C.ar        1 FBV      -0.0640
      3 C3         17.2649    4.1305   11.5821 C.ar        1 FBV      -0.0369
      4 C4         17.6753    2.7964   11.7847 C.ar        1 FBV       0.1411
      5 C5         17.1279    2.0612   12.8646 C.ar        1 FBV       0.1588
      6 C6         16.2055    2.6714   13.7348 C.ar        1 FBV      -0.0262
      7 S          18.8221    2.0779   10.6748 S.o2        1 FBV       0.0666
      8 N2         19.5228    3.1653    9.5969 N.am        1 FBV      -0.2614
      9 O1         19.9841    1.4294   11.5408 O.2         1 FBV      -0.1511
     10 O2         18.0714    0.9361    9.8640 O.2         1 FBV      -0.1511
     11 F          17.4500    0.8136   13.0773 F           1 FBV      -0.1813
     12 H1         15.1384    4.4441   14.1621 H           1 FBV       0.0607
     13 H2         16.0627    5.7042   12.3058 H           1 FBV       0.0583
     14 H3         17.6202    4.6753   10.7940 H           1 FBV       0.0627
     15 H4         15.7998    2.1410   14.5110 H           1 FBV       0.0604
     16 H5         20.3055    2.9002    9.0927 H           1 FBV       0.1634
     17 H6         19.2738    4.0980    9.6174 H           1 FBV       0.1634
@<TRIPOS>BOND
     1     1     2  ar
     2     1     6  ar
     3     2     3  ar
     4     3     4  ar
     5     4     5  ar
     6     4     7   1
     7     5     6  ar
     8     5    11   1
     9     7     8  am
    10     7     9   2
    11     7    10   2
    12     1    12   1
    13     2    13   1
    14     3    14   1
    15     6    15   1
    16     8    16   1
    17     8    17   1
@<TRIPOS>SUBSTRUCTURE
     1  FBV      1

