@<TRIPOS>MOLECULE
2weg_ligand_007
    17    17
SMALL
GAST_HUCK
****
This file was generated by PARSER (from files_GN.cpp)

@<TRIPOS>ATOM
      1 C1         17.9887    3.5891   15.2822 C.ar        1 FBV      -0.0635
      2 C2         17.4082    2.3147   15.3908 C.ar        1 FBV      -0.0640
      3 C3         16.9778    1.6410   14.2352 C.ar        1 FBV      -0.0369
      4 C4         17.1209    2.2278   12.9567 C.ar        1 FBV       0.1411
      5 C5         17.7089    3.5118   12.8555 C.ar        1 FBV       0.1588
      6 C6         18.1323    4.1878   14.0173 C.ar        1 FBV      -0.0262
      7 S          16.6099    1.3415   11.5399 S.o2        1 FBV       0.0666
      8 N2         17.8811    1.1694   10.4519 N.am        1 FBV      -0.2614
      9 O1         16.1419   -0.1228   11.9522 O.2         1 FBV      -0.1511
     10 O2         15.4146    2.0994   10.8162 O.2         1 FBV      -0.1511
     11 F          17.8718    4.0964   11.6981 F           1 FBV      -0.1813
     12 H1         18.3028    4.0780   16.1230 H           1 FBV       0.0607
     13 H2         17.2988    1.8755   16.3062 H           1 FBV       0.0583
     14 H3         16.5632    0.7133   14.3507 H           1 FBV       0.0627
     15 H4         18.5559    5.1156   13.9462 H           1 FBV       0.0604
     16 H5         17.7738    0.6047    9.6667 H           1 FBV       0.1634
     17 H6         18.7056    1.6664   10.5817 H           1 FBV       0.1634
@<TRIPOS>BOND
     1     1     2  ar
     2     1     6  ar
     3     2     3  ar
     4     3     4  ar
     5     4     5  ar
     6     4     7   1
     7     5     6  ar
     8     5    11   1
     9     7     8  am
    10     7     9   2
    11     7    10   2
    12     1    12   1
    13     2    13   1
    14     3    14   1
    15     6    15   1
    16     8    16   1
    17     8    17   1
@<TRIPOS>SUBSTRUCTURE
     1  FBV      1

