@<TRIPOS>MOLECULE
2weg_ligand_008
    17    17
SMALL
GAST_HUCK
****
This file was generated by PARSER (from files_GN.cpp)

@<TRIPOS>ATOM
      1 C1         15.5189    8.7119   11.9913 C.ar        1 FBV      -0.0635
      2 C2         16.0934    7.9057   10.9938 C.ar        1 FBV      -0.0640
      3 C3         15.6590    8.0205    9.6613 C.ar        1 FBV      -0.0369
      4 C4         14.6441    8.9371    9.3100 C.ar        1 FBV       0.1411
      5 C5         14.0723    9.7491   10.3203 C.ar        1 FBV       0.1588
      6 C6         14.5075    9.6282   11.6558 C.ar        1 FBV      -0.0262
      7 S          14.1672    9.0470    7.6346 S.o2        1 FBV       0.0666
      8 N2         14.0677    7.5221    6.9371 N.am        1 FBV      -0.2614
      9 O1         12.7561    9.7549    7.4380 O.2         1 FBV      -0.1511
     10 O2         15.2927    9.8583    6.8586 O.2         1 FBV      -0.1511
     11 F          13.1466   10.6303   10.0581 F           1 FBV      -0.1813
     12 H1         15.8324    8.6270   12.9604 H           1 FBV       0.0607
     13 H2         16.8318    7.2430   11.2368 H           1 FBV       0.0583
     14 H3         16.0957    7.4300    8.9508 H           1 FBV       0.0627
     15 H4         14.0950   10.2150   12.3851 H           1 FBV       0.0604
     16 H5         13.6919    7.4245    6.0500 H           1 FBV       0.1634
     17 H6         14.3263    6.7392    7.4440 H           1 FBV       0.1634
@<TRIPOS>BOND
     1     1     2  ar
     2     1     6  ar
     3     2     3  ar
     4     3     4  ar
     5     4     5  ar
     6     4     7   1
     7     5     6  ar
     8     5    11   1
     9     7     8  am
    10     7     9   2
    11     7    10   2
    12     1    12   1
    13     2    13   1
    14     3    14   1
    15     6    15   1
    16     8    16   1
    17     8    17   1
@<TRIPOS>SUBSTRUCTURE
     1  FBV      1

