@<TRIPOS>MOLECULE
2weg_ligand_022
    17    17
SMALL
GAST_HUCK
****
This file was generated by PARSER (from files_GN.cpp)

@<TRIPOS>ATOM
      1 C1         16.8395    7.8563   11.3757 C.ar        1 FBV      -0.0635
      2 C2         18.1669    8.2754   11.5716 C.ar        1 FBV      -0.0640
      3 C3         19.2318    7.4045   11.2753 C.ar        1 FBV      -0.0369
      4 C4         18.9800    6.1047   10.7816 C.ar        1 FBV       0.1411
      5 C5         17.6403    5.6871   10.5940 C.ar        1 FBV       0.1588
      6 C6         16.5779    6.5645   10.8864 C.ar        1 FBV      -0.0262
      7 S          20.3139    5.0410   10.4121 S.o2        1 FBV       0.0666
      8 N2         20.1086    4.2747    8.9301 N.am        1 FBV      -0.2614
      9 O1         21.7283    5.7678   10.4482 O.2         1 FBV      -0.1511
     10 O2         20.3035    3.9086   11.5292 O.2         1 FBV      -0.1511
     11 F          17.3503    4.4913   10.1548 F           1 FBV      -0.1813
     12 H1         16.0654    8.4894   11.5897 H           1 FBV       0.0607
     13 H2         18.3580    9.2144   11.9285 H           1 FBV       0.0583
     14 H3         20.1894    7.7303   11.4242 H           1 FBV       0.0627
     15 H4         15.6113    6.2646   10.7433 H           1 FBV       0.0604
     16 H5         20.5303    3.4161    8.7736 H           1 FBV       0.1634
     17 H6         19.7465    4.7721    8.1799 H           1 FBV       0.1634
@<TRIPOS>BOND
     1     1     2  ar
     2     1     6  ar
     3     2     3  ar
     4     3     4  ar
     5     4     5  ar
     6     4     7   1
     7     5     6  ar
     8     5    11   1
     9     7     8  am
    10     7     9   2
    11     7    10   2
    12     1    12   1
    13     2    13   1
    14     3    14   1
    15     6    15   1
    16     8    16   1
    17     8    17   1
@<TRIPOS>SUBSTRUCTURE
     1  FBV      1

