@<TRIPOS>MOLECULE
2weg_ligand_018
    17    17
SMALL
GAST_HUCK
****
This file was generated by PARSER (from files_GN.cpp)

@<TRIPOS>ATOM
      1 C1         20.2066    5.7018   10.3113 C.ar        1 FBV      -0.0635
      2 C2         18.8123    5.8305   10.2127 C.ar        1 FBV      -0.0640
      3 C3         17.9913    4.6993   10.3678 C.ar        1 FBV      -0.0369
      4 C4         18.5584    3.4257   10.6120 C.ar        1 FBV       0.1411
      5 C5         19.9665    3.3085   10.7030 C.ar        1 FBV       0.1588
      6 C6         20.7840    4.4421   10.5473 C.ar        1 FBV      -0.0262
      7 S          17.5214    2.0260   10.7629 S.o2        1 FBV       0.0666
      8 N2         17.9350    0.8633    9.6250 N.am        1 FBV      -0.2614
      9 O1         17.7780    1.3971   12.2004 O.2         1 FBV      -0.1511
     10 O2         15.9737    2.3518   10.6034 O.2         1 FBV      -0.1511
     11 F          20.5404    2.1545   10.9122 F           1 FBV      -0.1813
     12 H1         20.8027    6.5220   10.1959 H           1 FBV       0.0607
     13 H2         18.3915    6.7413   10.0322 H           1 FBV       0.0583
     14 H3         16.9760    4.8058   10.2836 H           1 FBV       0.0627
     15 H4         21.7986    4.3553   10.6027 H           1 FBV       0.0604
     16 H5         17.9142   -0.0832    9.8710 H           1 FBV       0.1634
     17 H6         18.1343    1.1325    8.7072 H           1 FBV       0.1634
@<TRIPOS>BOND
     1     1     2  ar
     2     1     6  ar
     3     2     3  ar
     4     3     4  ar
     5     4     5  ar
     6     4     7   1
     7     5     6  ar
     8     5    11   1
     9     7     8  am
    10     7     9   2
    11     7    10   2
    12     1    12   1
    13     2    13   1
    14     3    14   1
    15     6    15   1
    16     8    16   1
    17     8    17   1
@<TRIPOS>SUBSTRUCTURE
     1  FBV      1

