@<TRIPOS>MOLECULE
2weg_ligand_028
    17    17
SMALL
GAST_HUCK
****
This file was generated by PARSER (from files_GN.cpp)

@<TRIPOS>ATOM
      1 C1         18.5608    6.3725   13.1538 C.ar        1 FBV      -0.0635
      2 C2         17.9258    5.5306   12.2249 C.ar        1 FBV      -0.0640
      3 C3         17.3050    4.3450   12.6576 C.ar        1 FBV      -0.0369
      4 C4         17.3168    3.9838   14.0235 C.ar        1 FBV       0.1411
      5 C5         17.9478    4.8447   14.9559 C.ar        1 FBV       0.1588
      6 C6         18.5698    6.0311   14.5175 C.ar        1 FBV      -0.0262
      7 S          16.5733    2.4848   14.5291 S.o2        1 FBV       0.0666
      8 N2         17.5447    1.7164   15.6640 N.am        1 FBV      -0.2614
      9 O1         15.1870    2.8362   15.2235 O.2         1 FBV      -0.1511
     10 O2         16.3511    1.4951   13.3041 O.2         1 FBV      -0.1511
     11 F          17.9771    4.5721   16.2339 F           1 FBV      -0.1813
     12 H1         19.0151    7.2326   12.8380 H           1 FBV       0.0607
     13 H2         17.9197    5.7786   11.2328 H           1 FBV       0.0583
     14 H3         16.8503    3.7473   11.9634 H           1 FBV       0.0627
     15 H4         19.0333    6.6487   15.1888 H           1 FBV       0.0604
     16 H5         17.2107    0.9639   16.1735 H           1 FBV       0.1634
     17 H6         18.4007    2.1066   15.8924 H           1 FBV       0.1634
@<TRIPOS>BOND
     1     1     2  ar
     2     1     6  ar
     3     2     3  ar
     4     3     4  ar
     5     4     5  ar
     6     4     7   1
     7     5     6  ar
     8     5    11   1
     9     7     8  am
    10     7     9   2
    11     7    10   2
    12     1    12   1
    13     2    13   1
    14     3    14   1
    15     6    15   1
    16     8    16   1
    17     8    17   1
@<TRIPOS>SUBSTRUCTURE
     1  FBV      1

