@<TRIPOS>MOLECULE
2weg_ligand_006
    17    17
SMALL
GAST_HUCK
****
This file was generated by PARSER (from files_GN.cpp)

@<TRIPOS>ATOM
      1 C1         14.6261    6.3788   14.6030 C.ar        1 FBV      -0.0635
      2 C2         14.3486    6.8043   15.9138 C.ar        1 FBV      -0.0640
      3 C3         14.4489    5.8934   16.9809 C.ar        1 FBV      -0.0369
      4 C4         14.8355    4.5555   16.7596 C.ar        1 FBV       0.1411
      5 C5         15.0893    4.1316   15.4320 C.ar        1 FBV       0.1588
      6 C6         14.9888    5.0424   14.3601 C.ar        1 FBV      -0.0262
      7 S          14.8919    3.4720   18.1279 S.o2        1 FBV       0.0666
      8 N2         15.2356    4.2661   19.5676 N.am        1 FBV      -0.2614
      9 O1         13.4531    2.8004   18.2256 O.2         1 FBV      -0.1511
     10 O2         16.0042    2.3526   17.9280 O.2         1 FBV      -0.1511
     11 F          15.4002    2.8874   15.1551 F           1 FBV      -0.1813
     12 H1         14.5535    7.0412   13.8241 H           1 FBV       0.0607
     13 H2         14.0675    7.7731   16.0880 H           1 FBV       0.0583
     14 H3         14.2234    6.2255   17.9225 H           1 FBV       0.0627
     15 H4         15.1747    4.7371   13.4033 H           1 FBV       0.0604
     16 H5         15.5563    3.7715   20.3246 H           1 FBV       0.1634
     17 H6         15.3263    5.2263   19.5564 H           1 FBV       0.1634
@<TRIPOS>BOND
     1     1     2  ar
     2     1     6  ar
     3     2     3  ar
     4     3     4  ar
     5     4     5  ar
     6     4     7   1
     7     5     6  ar
     8     5    11   1
     9     7     8  am
    10     7     9   2
    11     7    10   2
    12     1    12   1
    13     2    13   1
    14     3    14   1
    15     6    15   1
    16     8    16   1
    17     8    17   1
@<TRIPOS>SUBSTRUCTURE
     1  FBV      1

