@<TRIPOS>MOLECULE
2weg_ligand_027
    17    17
SMALL
GAST_HUCK
****
This file was generated by PARSER (from files_GN.cpp)

@<TRIPOS>ATOM
      1 C1         19.2942    6.9956   13.9249 C.ar        1 FBV      -0.0635
      2 C2         18.2439    6.0861   13.7043 C.ar        1 FBV      -0.0640
      3 C3         18.3707    5.0874   12.7195 C.ar        1 FBV      -0.0369
      4 C4         19.5450    4.9941   11.9364 C.ar        1 FBV       0.1411
      5 C5         20.5978    5.9111   12.1710 C.ar        1 FBV       0.1588
      6 C6         20.4667    6.9092   13.1540 C.ar        1 FBV      -0.0262
      7 S          19.6874    3.7368   10.7300 S.o2        1 FBV       0.0666
      8 N2         20.4652    4.3076    9.3531 N.am        1 FBV      -0.2614
      9 O1         20.5651    2.5721   11.3706 O.2         1 FBV      -0.1511
     10 O2         18.2650    3.1698   10.2925 O.2         1 FBV      -0.1511
     11 F          21.7162    5.8691   11.4948 F           1 FBV      -0.1813
     12 H1         19.2042    7.7152   14.6434 H           1 FBV       0.0607
     13 H2         17.3894    6.1481   14.2632 H           1 FBV       0.0583
     14 H3         17.5927    4.4330   12.5790 H           1 FBV       0.0627
     15 H4         21.2249    7.5748   13.3155 H           1 FBV       0.0604
     16 H5         20.7767    3.6731    8.6901 H           1 FBV       0.1634
     17 H6         20.6581    5.2589    9.2675 H           1 FBV       0.1634
@<TRIPOS>BOND
     1     1     2  ar
     2     1     6  ar
     3     2     3  ar
     4     3     4  ar
     5     4     5  ar
     6     4     7   1
     7     5     6  ar
     8     5    11   1
     9     7     8  am
    10     7     9   2
    11     7    10   2
    12     1    12   1
    13     2    13   1
    14     3    14   1
    15     6    15   1
    16     8    16   1
    17     8    17   1
@<TRIPOS>SUBSTRUCTURE
     1  FBV      1

