@<TRIPOS>MOLECULE
2weg_ligand_002
    17    17
SMALL
GAST_HUCK
****
This file was generated by PARSER (from files_GN.cpp)

@<TRIPOS>ATOM
      1 C1         15.3657    8.7576   12.0625 C.ar        1 FBV      -0.0635
      2 C2         14.2221    9.5337   11.8019 C.ar        1 FBV      -0.0640
      3 C3         13.7046    9.6106   10.4930 C.ar        1 FBV      -0.0369
      4 C4         14.3264    8.9093    9.4336 C.ar        1 FBV       0.1411
      5 C5         15.4851    8.1447    9.7041 C.ar        1 FBV       0.1588
      6 C6         15.9981    8.0657   11.0134 C.ar        1 FBV      -0.0262
      7 S          13.6878    9.0062    7.8110 S.o2        1 FBV       0.0666
      8 N2         13.7371    7.5037    7.0641 N.am        1 FBV      -0.2614
      9 O1         12.1784    9.5108    7.8030 O.2         1 FBV      -0.1511
     10 O2         14.6121    9.9979    6.9787 O.2         1 FBV      -0.1511
     11 F          16.1175    7.5060    8.7580 F           1 FBV      -0.1813
     12 H1         15.7306    8.6833   13.0138 H           1 FBV       0.0607
     13 H2         13.7643   10.0383   12.5626 H           1 FBV       0.0583
     14 H3         12.8788   10.1879   10.3131 H           1 FBV       0.0627
     15 H4         16.8314    7.5024   11.2107 H           1 FBV       0.0604
     16 H5         13.3717    7.4004    6.1735 H           1 FBV       0.1634
     17 H6         14.2304    6.7761    7.4729 H           1 FBV       0.1634
@<TRIPOS>BOND
     1     1     2  ar
     2     1     6  ar
     3     2     3  ar
     4     3     4  ar
     5     4     5  ar
     6     4     7   1
     7     5     6  ar
     8     5    11   1
     9     7     8  am
    10     7     9   2
    11     7    10   2
    12     1    12   1
    13     2    13   1
    14     3    14   1
    15     6    15   1
    16     8    16   1
    17     8    17   1
@<TRIPOS>SUBSTRUCTURE
     1  FBV      1

