@<TRIPOS>MOLECULE
2weg_ligand_024
    17    17
SMALL
GAST_HUCK
****
This file was generated by PARSER (from files_GN.cpp)

@<TRIPOS>ATOM
      1 C1         20.1245    4.1577    9.8082 C.ar        1 FBV      -0.0635
      2 C2         18.9308    4.8925    9.6916 C.ar        1 FBV      -0.0640
      3 C3         17.7565    4.4380   10.3243 C.ar        1 FBV      -0.0369
      4 C4         17.7669    3.2409   11.0776 C.ar        1 FBV       0.1411
      5 C5         18.9698    2.5023   11.1778 C.ar        1 FBV       0.1588
      6 C6         20.1424    2.9637   10.5503 C.ar        1 FBV      -0.0262
      7 S          16.3116    2.6785   11.8631 S.o2        1 FBV       0.0666
      8 N2         16.5361    2.5635   13.5244 N.am        1 FBV      -0.2614
      9 O1         15.0989    3.6781   11.6169 O.2         1 FBV      -0.1511
     10 O2         15.9383    1.2353   11.3095 O.2         1 FBV      -0.1511
     11 F          19.0295    1.3822   11.8500 F           1 FBV      -0.1813
     12 H1         20.9764    4.4885    9.3487 H           1 FBV       0.0607
     13 H2         18.9159    5.7561    9.1443 H           1 FBV       0.0583
     14 H3         16.8993    4.9834   10.2205 H           1 FBV       0.0627
     15 H4         21.0124    2.4350   10.6336 H           1 FBV       0.0604
     16 H5         15.7658    2.4989   14.1098 H           1 FBV       0.1634
     17 H6         17.4194    2.6947   13.9026 H           1 FBV       0.1634
@<TRIPOS>BOND
     1     1     2  ar
     2     1     6  ar
     3     2     3  ar
     4     3     4  ar
     5     4     5  ar
     6     4     7   1
     7     5     6  ar
     8     5    11   1
     9     7     8  am
    10     7     9   2
    11     7    10   2
    12     1    12   1
    13     2    13   1
    14     3    14   1
    15     6    15   1
    16     8    16   1
    17     8    17   1
@<TRIPOS>SUBSTRUCTURE
     1  FBV      1

