@<TRIPOS>MOLECULE
2wtv_ligand_047
    48    52
SMALL
GAST_HUCK
****
This file was generated by PARSER (from files_GN.cpp)

@<TRIPOS>ATOM
      1 C13         6.3169   -7.5466   -1.9182 C.3         1 ZZL       0.0407
      2 C15         7.2750   -9.4666   -3.0885 C.2         1 ZZL       0.0550
      3 C17         9.6989   -9.3445   -3.5976 C.ar        1 ZZL       0.1522
      4 C20        10.6167  -10.5384   -5.5137 C.ar        1 ZZL      -0.0589
      5 C21         9.3362  -11.0220   -5.8211 C.ar        1 ZZL      -0.0237
      6 C22         8.2299  -10.6624   -5.0285 C.ar        1 ZZL       0.1522
      7 C24         6.2492  -10.3744   -2.7316 C.ar        1 ZZL       0.0251
      8 C26         5.6648  -12.6713   -2.0276 C.ar        1 ZZL       0.0501
      9 C28         4.3062  -12.3237   -1.9969 C.ar        1 ZZL      -0.0388
     10 O01        -2.8758  -11.8825   -6.1283 O.co2       1 ZZL      -0.5638
     11 C02        -1.6054  -11.6961   -6.5489 C.2         1 ZZL       0.0552
     12 O03        -1.1921  -12.4885   -7.5665 O.co2       1 ZZL      -0.5638
     13 C04        -0.8064  -10.6363   -6.0512 C.ar        1 ZZL      -0.0018
     14 C05        -1.2937   -9.7581   -5.0551 C.ar        1 ZZL      -0.0573
     15 C06        -0.5339   -8.6544   -4.6251 C.ar        1 ZZL      -0.0347
     16 C07         0.7524   -8.4303   -5.1519 C.ar        1 ZZL       0.0671
     17 N08         1.4649   -7.3567   -4.7210 N.pl3       1 ZZL      -0.2432
     18 C09         2.6419   -7.4340   -4.0642 C.ar        1 ZZL       0.2053
     19 N10         3.2666   -6.2855   -3.7104 N.ar        1 ZZL      -0.2577
     20 C11         4.4366   -6.2916   -3.0290 C.ar        1 ZZL       0.0185
     21 C12         5.0309   -7.5142   -2.6453 C.ar        1 ZZL       0.0154
     22 N14         7.2416   -8.2404   -2.6812 N.2         1 ZZL      -0.3323
     23 C16         8.3854   -9.8227   -3.8851 C.ar        1 ZZL       0.0838
     24 F18         9.9542   -8.5904   -2.5589 F           1 ZZL      -0.1759
     25 C19        10.7950   -9.6940   -4.4082 C.ar        1 ZZL      -0.0237
     26 F23         7.0617  -11.1068   -5.4164 F           1 ZZL      -0.1759
     27 C25         6.6186  -11.7040   -2.3902 C.ar        1 ZZL      -0.0267
     28 CL1         6.1550  -14.2397   -1.6200 Cl          1 ZZL      -0.0667
     29 C29         3.9111  -11.0165   -2.3231 C.ar        1 ZZL      -0.0425
     30 C30         4.8598  -10.0242   -2.6889 C.ar        1 ZZL       0.0182
     31 C31         4.3684   -8.7178   -3.0080 C.ar        1 ZZL       0.0633
     32 N32         3.2048   -8.6161   -3.7036 N.ar        1 ZZL      -0.2522
     33 C33         1.2619   -9.3117   -6.1284 C.ar        1 ZZL      -0.0347
     34 C34         0.4885  -10.4012   -6.5721 C.ar        1 ZZL      -0.0573
     35 H1          6.1898   -8.0305   -0.9478 H           1 ZZL       0.0550
     36 H2          6.7067   -6.5429   -1.7421 H           1 ZZL       0.0550
     37 H3         11.4159  -10.7937   -6.0968 H           1 ZZL       0.0651
     38 H4          9.2135  -11.6263   -6.6378 H           1 ZZL       0.0588
     39 H5          3.6018  -13.0144   -1.7232 H           1 ZZL       0.0679
     40 H6         -2.2222   -9.8958   -4.6477 H           1 ZZL       0.0621
     41 H7         -0.9125   -8.0252   -3.9119 H           1 ZZL       0.0543
     42 H8          1.0577   -6.4789   -4.8027 H           1 ZZL       0.2170
     43 H9          4.8755   -5.3973   -2.8048 H           1 ZZL       0.0835
     44 H10        11.7295   -9.3364   -4.1951 H           1 ZZL       0.0588
     45 H11         7.6048  -11.9768   -2.3787 H           1 ZZL       0.0697
     46 H12         2.9123  -10.7957   -2.2714 H           1 ZZL       0.0662
     47 H13         2.1865   -9.1524   -6.5336 H           1 ZZL       0.0543
     48 H14         0.8795  -11.0050   -7.2927 H           1 ZZL       0.0621
@<TRIPOS>BOND
     1    21     1   1
     2     1    22   1
     3     2     7   1
     4    22     2   2
     5     2    23   1
     6    23     3  ar
     7     3    24   1
     8     3    25  ar
     9     5     4  ar
    10    25     4  ar
    11     6     5  ar
    12    23     6  ar
    13     6    26   1
    14     7    27  ar
    15     7    30  ar
    16     8     9  ar
    17    27     8  ar
    18     8    28   1
    19     9    29  ar
    20    11    10  ar
    21    11    12  ar
    22    13    11   1
    23    14    13  ar
    24    13    34  ar
    25    15    14  ar
    26    16    15  ar
    27    17    16   1
    28    16    33  ar
    29    18    17   1
    30    19    18  ar
    31    18    32  ar
    32    20    19  ar
    33    20    21  ar
    34    21    31  ar
    35    29    30  ar
    36    30    31   1
    37    31    32  ar
    38    33    34  ar
    39     1    35   1
    40     1    36   1
    41     4    37   1
    42     5    38   1
    43     9    39   1
    44    14    40   1
    45    15    41   1
    46    17    42   1
    47    20    43   1
    48    25    44   1
    49    27    45   1
    50    29    46   1
    51    33    47   1
    52    34    48   1
@<TRIPOS>SUBSTRUCTURE
     1  ZZL      1

