@<TRIPOS>MOLECULE
2wtv_ligand_033
    48    52
SMALL
GAST_HUCK
****
This file was generated by PARSER (from files_GN.cpp)

@<TRIPOS>ATOM
      1 C13        11.4113  -12.6086   -6.3794 C.3         1 ZZL       0.0407
      2 C15        11.6250  -10.3229   -5.5109 C.2         1 ZZL       0.0550
      3 C17        11.3228   -7.8834   -5.0873 C.ar        1 ZZL       0.1522
      4 C20        11.8334   -6.2324   -6.8114 C.ar        1 ZZL      -0.0589
      5 C21        12.1185   -7.2723   -7.7068 C.ar        1 ZZL      -0.0237
      6 C22        12.0593   -8.6151   -7.2782 C.ar        1 ZZL       0.1522
      7 C24        11.7656  -10.7281   -4.1586 C.ar        1 ZZL       0.0251
      8 C26        12.8261  -10.2830   -1.9732 C.ar        1 ZZL       0.0501
      9 C28        12.0086  -11.2486   -1.3732 C.ar        1 ZZL      -0.0388
     10 O01         5.9617  -13.6585    2.8334 O.co2       1 ZZL      -0.5638
     11 C02         5.4333  -12.9909    1.7799 C.2         1 ZZL       0.0552
     12 O03         4.5095  -12.0480    2.0812 O.co2       1 ZZL      -0.5638
     13 C04         5.7960  -13.2666    0.4339 C.ar        1 ZZL      -0.0018
     14 C05         6.5604  -14.4110    0.1011 C.ar        1 ZZL      -0.0573
     15 C06         6.9033  -14.6865   -1.2349 C.ar        1 ZZL      -0.0347
     16 C07         6.5064  -13.8141   -2.2653 C.ar        1 ZZL       0.0671
     17 N08         6.7964  -14.1018   -3.5568 N.pl3       1 ZZL      -0.2432
     18 C09         7.9341  -13.7436   -4.1877 C.ar        1 ZZL       0.2053
     19 N10         8.1113  -14.1498   -5.4679 N.ar        1 ZZL      -0.2577
     20 C11         9.2198  -13.8250   -6.1752 C.ar        1 ZZL       0.0185
     21 C12        10.2244  -13.0148   -5.5991 C.ar        1 ZZL       0.0154
     22 N14        11.4702  -11.2184   -6.4266 N.2         1 ZZL      -0.3323
     23 C16        11.6716   -8.9674   -5.9481 C.ar        1 ZZL       0.0838
     24 F18        10.8244   -8.0841   -3.8962 F           1 ZZL      -0.1759
     25 C19        11.4467   -6.5380   -5.4993 C.ar        1 ZZL      -0.0237
     26 F23        12.4064   -9.5035   -8.1718 F           1 ZZL      -0.1759
     27 C25        12.7298  -10.0583   -3.3580 C.ar        1 ZZL      -0.0267
     28 CL1        13.9016   -9.3798   -1.0260 Cl          1 ZZL      -0.0667
     29 C29        11.1214  -11.9990   -2.1565 C.ar        1 ZZL      -0.0425
     30 C30        10.9781  -11.7637   -3.5504 C.ar        1 ZZL       0.0182
     31 C31        10.0404  -12.5847   -4.2573 C.ar        1 ZZL       0.0633
     32 N32         8.9040  -12.9806   -3.6154 N.ar        1 ZZL      -0.2522
     33 C33         5.7422  -12.6744   -1.9524 C.ar        1 ZZL      -0.0347
     34 C34         5.3951  -12.4021   -0.6155 C.ar        1 ZZL      -0.0573
     35 H1         11.3638  -12.9781   -7.4076 H           1 ZZL       0.0550
     36 H2         12.3175  -13.0118   -5.9192 H           1 ZZL       0.0550
     37 H3         11.8966   -5.2566   -7.1204 H           1 ZZL       0.0651
     38 H4         12.3843   -7.0422   -8.6702 H           1 ZZL       0.0588
     39 H5         12.0443  -11.4137   -0.3669 H           1 ZZL       0.0679
     40 H6          6.8552  -15.0734    0.8221 H           1 ZZL       0.0621
     41 H7          7.4313  -15.5328   -1.4583 H           1 ZZL       0.0543
     42 H8          6.1315  -14.6029   -4.0559 H           1 ZZL       0.2170
     43 H9          9.2996  -14.1692   -7.1359 H           1 ZZL       0.0835
     44 H10        11.2331   -5.7681   -4.8551 H           1 ZZL       0.0588
     45 H11        13.3511   -9.3639   -3.7725 H           1 ZZL       0.0697
     46 H12        10.5607  -12.7132   -1.6792 H           1 ZZL       0.0662
     47 H13         5.4305  -12.0405   -2.6938 H           1 ZZL       0.0543
     48 H14         4.8441  -11.5622   -0.4215 H           1 ZZL       0.0621
@<TRIPOS>BOND
     1    21     1   1
     2     1    22   1
     3     2     7   1
     4    22     2   2
     5     2    23   1
     6    23     3  ar
     7     3    24   1
     8     3    25  ar
     9     5     4  ar
    10    25     4  ar
    11     6     5  ar
    12    23     6  ar
    13     6    26   1
    14     7    27  ar
    15     7    30  ar
    16     8     9  ar
    17    27     8  ar
    18     8    28   1
    19     9    29  ar
    20    11    10  ar
    21    11    12  ar
    22    13    11   1
    23    14    13  ar
    24    13    34  ar
    25    15    14  ar
    26    16    15  ar
    27    17    16   1
    28    16    33  ar
    29    18    17   1
    30    19    18  ar
    31    18    32  ar
    32    20    19  ar
    33    20    21  ar
    34    21    31  ar
    35    29    30  ar
    36    30    31   1
    37    31    32  ar
    38    33    34  ar
    39     1    35   1
    40     1    36   1
    41     4    37   1
    42     5    38   1
    43     9    39   1
    44    14    40   1
    45    15    41   1
    46    17    42   1
    47    20    43   1
    48    25    44   1
    49    27    45   1
    50    29    46   1
    51    33    47   1
    52    34    48   1
@<TRIPOS>SUBSTRUCTURE
     1  ZZL      1

