@<TRIPOS>MOLECULE
2wtv_ligand_020
    48    52
SMALL
GAST_HUCK
****
This file was generated by PARSER (from files_GN.cpp)

@<TRIPOS>ATOM
      1 C13        14.8565  -13.0571   -2.0932 C.3         1 ZZL       0.0407
      2 C15        14.6063  -13.9097   -4.3528 C.2         1 ZZL       0.0550
      3 C17        14.7525  -16.0761   -5.4911 C.ar        1 ZZL       0.1522
      4 C20        12.7083  -17.1775   -6.2355 C.ar        1 ZZL      -0.0589
      5 C21        11.9459  -16.1207   -5.7080 C.ar        1 ZZL      -0.0237
      6 C22        12.5828  -15.0283   -5.0914 C.ar        1 ZZL       0.1522
      7 C24        15.2196  -12.8421   -5.0458 C.ar        1 ZZL       0.0251
      8 C26        16.6404  -12.1214   -6.9374 C.ar        1 ZZL       0.0501
      9 C28        16.5894  -10.7992   -6.4825 C.ar        1 ZZL      -0.0388
     10 O01         9.3954   -4.6290    1.6720 O.co2       1 ZZL      -0.5638
     11 C02         8.9094   -5.3280    0.6195 C.2         1 ZZL       0.0552
     12 O03         7.5624   -5.3507    0.4900 O.co2       1 ZZL      -0.5638
     13 C04         9.7641   -6.0262   -0.2748 C.ar        1 ZZL      -0.0018
     14 C05         9.2875   -7.1199   -1.0393 C.ar        1 ZZL      -0.0573
     15 C06        10.1434   -7.8256   -1.9070 C.ar        1 ZZL      -0.0347
     16 C07        11.4961   -7.4478   -2.0371 C.ar        1 ZZL       0.0671
     17 N08        12.3184   -8.0993   -2.8959 N.pl3       1 ZZL      -0.2432
     18 C09        12.8954   -9.3015   -2.6651 C.ar        1 ZZL       0.2053
     19 N10        12.7452   -9.9950   -1.5064 N.ar        1 ZZL      -0.2577
     20 C11        13.3512  -11.1913   -1.3089 C.ar        1 ZZL       0.0185
     21 C12        14.1775  -11.7562   -2.3055 C.ar        1 ZZL       0.0154
     22 N14        14.4663  -13.9556   -3.0732 N.2         1 ZZL      -0.3323
     23 C16        13.9979  -14.9834   -4.9937 C.ar        1 ZZL       0.0838
     24 F18        16.0572  -16.0897   -5.4098 F           1 ZZL      -0.1759
     25 C19        14.1080  -17.1658   -6.1077 C.ar        1 ZZL      -0.0237
     26 F23        11.8342  -14.0640   -4.6195 F           1 ZZL      -0.1759
     27 C25        15.9699  -13.1286   -6.2204 C.ar        1 ZZL      -0.0267
     28 CL1        17.5384  -12.4978   -8.3237 Cl          1 ZZL      -0.0667
     29 C29        15.8444  -10.4856   -5.3373 C.ar        1 ZZL      -0.0425
     30 C30        15.1318  -11.4775   -4.6147 C.ar        1 ZZL       0.0182
     31 C31        14.3339  -11.0286   -3.5131 C.ar        1 ZZL       0.0633
     32 N32        13.6836   -9.8349   -3.6290 N.ar        1 ZZL      -0.2522
     33 C33        11.9734   -6.3436   -1.3058 C.ar        1 ZZL      -0.0347
     34 C34        11.1199   -5.6486   -0.4269 C.ar        1 ZZL      -0.0573
     35 H1         14.5940  -13.4932   -1.1259 H           1 ZZL       0.0550
     36 H2         15.9420  -12.9215   -2.1147 H           1 ZZL       0.0550
     37 H3         12.2441  -17.9580   -6.7044 H           1 ZZL       0.0651
     38 H4         10.9259  -16.1543   -5.7663 H           1 ZZL       0.0588
     39 H5         17.0940  -10.0580   -6.9759 H           1 ZZL       0.0679
     40 H6          8.3103   -7.4184   -0.9726 H           1 ZZL       0.0621
     41 H7          9.7726   -8.6061   -2.4542 H           1 ZZL       0.0543
     42 H8         12.5424   -7.6483   -3.7278 H           1 ZZL       0.2170
     43 H9         13.2053  -11.6650   -0.4179 H           1 ZZL       0.0835
     44 H10        14.6532  -17.9522   -6.4707 H           1 ZZL       0.0588
     45 H11        16.0578  -14.0932   -6.5588 H           1 ZZL       0.0697
     46 H12        15.8396   -9.5092   -5.0355 H           1 ZZL       0.0662
     47 H13        12.9469   -6.0457   -1.3997 H           1 ZZL       0.0543
     48 H14        11.5043   -4.8580    0.0972 H           1 ZZL       0.0621
@<TRIPOS>BOND
     1    21     1   1
     2     1    22   1
     3     2     7   1
     4    22     2   2
     5     2    23   1
     6    23     3  ar
     7     3    24   1
     8     3    25  ar
     9     5     4  ar
    10    25     4  ar
    11     6     5  ar
    12    23     6  ar
    13     6    26   1
    14     7    27  ar
    15     7    30  ar
    16     8     9  ar
    17    27     8  ar
    18     8    28   1
    19     9    29  ar
    20    11    10  ar
    21    11    12  ar
    22    13    11   1
    23    14    13  ar
    24    13    34  ar
    25    15    14  ar
    26    16    15  ar
    27    17    16   1
    28    16    33  ar
    29    18    17   1
    30    19    18  ar
    31    18    32  ar
    32    20    19  ar
    33    20    21  ar
    34    21    31  ar
    35    29    30  ar
    36    30    31   1
    37    31    32  ar
    38    33    34  ar
    39     1    35   1
    40     1    36   1
    41     4    37   1
    42     5    38   1
    43     9    39   1
    44    14    40   1
    45    15    41   1
    46    17    42   1
    47    20    43   1
    48    25    44   1
    49    27    45   1
    50    29    46   1
    51    33    47   1
    52    34    48   1
@<TRIPOS>SUBSTRUCTURE
     1  ZZL      1

