@<TRIPOS>MOLECULE
2wtv_ligand_052
    48    52
SMALL
GAST_HUCK
****
This file was generated by PARSER (from files_GN.cpp)

@<TRIPOS>ATOM
      1 C13        14.6693   -7.9471   -3.3851 C.3         1 ZZL       0.0407
      2 C15        14.3339  -10.2904   -2.8279 C.2         1 ZZL       0.0550
      3 C17        16.3064  -11.5447   -2.0511 C.ar        1 ZZL       0.1522
      4 C20        16.0346  -13.4320   -0.5347 C.ar        1 ZZL      -0.0589
      5 C21        14.6479  -13.2171   -0.5173 C.ar        1 ZZL      -0.0237
      6 C22        14.0822  -12.1672   -1.2673 C.ar        1 ZZL       0.1522
      7 C24        13.1790  -10.4877   -3.6223 C.ar        1 ZZL       0.0251
      8 C26        11.9245  -12.0059   -5.1150 C.ar        1 ZZL       0.0501
      9 C28        10.9266  -11.0344   -5.2776 C.ar        1 ZZL      -0.0388
     10 O01         3.7745   -8.5357   -1.5814 O.co2       1 ZZL      -0.5638
     11 C02         4.3211   -7.5404   -2.3288 C.2         1 ZZL       0.0552
     12 O03         3.4765   -6.8801   -3.1578 O.co2       1 ZZL      -0.5638
     13 C04         5.6800   -7.1607   -2.1860 C.ar        1 ZZL      -0.0018
     14 C05         6.6729   -8.1177   -1.8684 C.ar        1 ZZL      -0.0573
     15 C06         8.0214   -7.7421   -1.7162 C.ar        1 ZZL      -0.0347
     16 C07         8.4181   -6.3941   -1.8815 C.ar        1 ZZL       0.0671
     17 N08         9.6959   -5.9266   -1.7317 N.pl3       1 ZZL      -0.2432
     18 C09        10.8666   -6.4902   -2.1052 C.ar        1 ZZL       0.2053
     19 N10        11.9937   -5.7664   -1.8989 N.ar        1 ZZL      -0.2577
     20 C11        13.2137   -6.2113   -2.2851 C.ar        1 ZZL       0.0185
     21 C12        13.3474   -7.4559   -2.9374 C.ar        1 ZZL       0.0154
     22 N14        14.9439   -9.1561   -2.7654 N.2         1 ZZL      -0.3323
     23 C16        14.9018  -11.3168   -2.0579 C.ar        1 ZZL       0.0838
     24 F18        17.1250  -10.8200   -2.7718 F           1 ZZL      -0.1759
     25 C19        16.8635  -12.5946   -1.2981 C.ar        1 ZZL      -0.0237
     26 F23        12.7882  -11.9903   -1.1807 F           1 ZZL      -0.1759
     27 C25        13.0345  -11.7298   -4.2995 C.ar        1 ZZL      -0.0267
     28 CL1        11.7962  -13.4912   -5.9143 Cl          1 ZZL      -0.0667
     29 C29        11.0401   -9.8005   -4.6213 C.ar        1 ZZL      -0.0425
     30 C30        12.1519   -9.5001   -3.7905 C.ar        1 ZZL       0.0182
     31 C31        12.1692   -8.2204   -3.1473 C.ar        1 ZZL       0.0633
     32 N32        10.9866   -7.6964   -2.7180 N.ar        1 ZZL      -0.2522
     33 C33         7.4261   -5.4366   -2.1795 C.ar        1 ZZL      -0.0347
     34 C34         6.0801   -5.8136   -2.3468 C.ar        1 ZZL      -0.0573
     35 H1         15.4695   -7.2503   -3.1262 H           1 ZZL       0.0550
     36 H2         14.6739   -8.0699   -4.4709 H           1 ZZL       0.0550
     37 H3         16.4387  -14.1973    0.0115 H           1 ZZL       0.0651
     38 H4         14.0533  -13.8273    0.0504 H           1 ZZL       0.0588
     39 H5         10.1146  -11.2179   -5.8725 H           1 ZZL       0.0679
     40 H6          6.4220   -9.1005   -1.7420 H           1 ZZL       0.0621
     41 H7          8.6957   -8.4569   -1.4503 H           1 ZZL       0.0543
     42 H8          9.7715   -5.0194   -1.3935 H           1 ZZL       0.2170
     43 H9         14.0266   -5.6210   -2.1036 H           1 ZZL       0.0835
     44 H10        17.8712  -12.7590   -1.3069 H           1 ZZL       0.0588
     45 H11        13.7569  -12.4482   -4.2186 H           1 ZZL       0.0697
     46 H12        10.2991   -9.1108   -4.7770 H           1 ZZL       0.0662
     47 H13         7.6777   -4.4507   -2.2877 H           1 ZZL       0.0543
     48 H14         5.3969   -5.0848   -2.5688 H           1 ZZL       0.0621
@<TRIPOS>BOND
     1    21     1   1
     2     1    22   1
     3     2     7   1
     4    22     2   2
     5     2    23   1
     6    23     3  ar
     7     3    24   1
     8     3    25  ar
     9     5     4  ar
    10    25     4  ar
    11     6     5  ar
    12    23     6  ar
    13     6    26   1
    14     7    27  ar
    15     7    30  ar
    16     8     9  ar
    17    27     8  ar
    18     8    28   1
    19     9    29  ar
    20    11    10  ar
    21    11    12  ar
    22    13    11   1
    23    14    13  ar
    24    13    34  ar
    25    15    14  ar
    26    16    15  ar
    27    17    16   1
    28    16    33  ar
    29    18    17   1
    30    19    18  ar
    31    18    32  ar
    32    20    19  ar
    33    20    21  ar
    34    21    31  ar
    35    29    30  ar
    36    30    31   1
    37    31    32  ar
    38    33    34  ar
    39     1    35   1
    40     1    36   1
    41     4    37   1
    42     5    38   1
    43     9    39   1
    44    14    40   1
    45    15    41   1
    46    17    42   1
    47    20    43   1
    48    25    44   1
    49    27    45   1
    50    29    46   1
    51    33    47   1
    52    34    48   1
@<TRIPOS>SUBSTRUCTURE
     1  ZZL      1

