@<TRIPOS>MOLECULE
2wtv_ligand_035
    48    52
SMALL
GAST_HUCK
****
This file was generated by PARSER (from files_GN.cpp)

@<TRIPOS>ATOM
      1 C13         3.3015   -6.7980   -4.8828 C.3         1 ZZL       0.0407
      2 C15         4.7345   -7.0016   -2.9351 C.2         1 ZZL       0.0550
      3 C17         6.0093   -5.3958   -1.6011 C.ar        1 ZZL       0.1522
      4 C20         5.2299   -4.8109    0.6387 C.ar        1 ZZL      -0.0589
      5 C21         4.1754   -5.7310    0.5106 C.ar        1 ZZL      -0.0237
      6 C22         4.0331   -6.4877   -0.6699 C.ar        1 ZZL       0.1522
      7 C24         5.4132   -8.1856   -3.3092 C.ar        1 ZZL       0.0251
      8 C26         7.5444   -9.4438   -3.3555 C.ar        1 ZZL       0.0501
      9 C28         6.9378  -10.4571   -4.1033 C.ar        1 ZZL      -0.0388
     10 O01         4.4409  -16.8646   -2.8633 O.co2       1 ZZL      -0.5638
     11 C02         3.2190  -16.7755   -3.4463 C.2         1 ZZL       0.0552
     12 O03         2.5541  -17.9370   -3.6587 O.co2       1 ZZL      -0.5638
     13 C04         2.6286  -15.5359   -3.7651 C.ar        1 ZZL      -0.0018
     14 C05         2.4374  -14.5436   -2.7731 C.ar        1 ZZL      -0.0573
     15 C06         1.8373  -13.3167   -3.0959 C.ar        1 ZZL      -0.0347
     16 C07         1.4213  -13.0418   -4.4216 C.ar        1 ZZL       0.0671
     17 N08         0.8492  -11.8571   -4.7715 N.pl3       1 ZZL      -0.2432
     18 C09         1.4477  -10.6429   -4.7270 C.ar        1 ZZL       0.2053
     19 N10         0.7470   -9.5551   -5.1267 N.ar        1 ZZL      -0.2577
     20 C11         1.3068   -8.3201   -5.1649 C.ar        1 ZZL       0.0185
     21 C12         2.6628   -8.1355   -4.8077 C.ar        1 ZZL       0.0154
     22 N14         3.8200   -6.4487   -3.6505 N.2         1 ZZL      -0.3323
     23 C16         4.9523   -6.3305   -1.7386 C.ar        1 ZZL       0.0838
     24 F18         6.8653   -5.1986   -2.5669 F           1 ZZL      -0.1759
     25 C19         6.1489   -4.6458   -0.4141 C.ar        1 ZZL      -0.0237
     26 F23         3.0099   -7.3018   -0.7637 F           1 ZZL      -0.1759
     27 C25         6.7850   -8.3320   -2.9574 C.ar        1 ZZL      -0.0267
     28 CL1         9.1870   -9.5469   -2.9596 Cl          1 ZZL      -0.0667
     29 C29         5.5768  -10.3630   -4.4311 C.ar        1 ZZL      -0.0425
     30 C30         4.7911   -9.2493   -4.0438 C.ar        1 ZZL       0.0182
     31 C31         3.4012   -9.2754   -4.3979 C.ar        1 ZZL       0.0633
     32 N32         2.7488  -10.4704   -4.3753 N.ar        1 ZZL      -0.2522
     33 C33         1.5825  -14.0421   -5.4057 C.ar        1 ZZL      -0.0347
     34 C34         2.1939  -15.2639   -5.0859 C.ar        1 ZZL      -0.0573
     35 H1          2.5897   -6.0204   -5.1687 H           1 ZZL       0.0550
     36 H2          4.1018   -6.8105   -5.6257 H           1 ZZL       0.0550
     37 H3          5.3233   -4.2605    1.4929 H           1 ZZL       0.0651
     38 H4          3.5022   -5.8389    1.2688 H           1 ZZL       0.0588
     39 H5          7.4805  -11.2710   -4.4028 H           1 ZZL       0.0679
     40 H6          2.7198  -14.7139   -1.8008 H           1 ZZL       0.0621
     41 H7          1.6951  -12.6209   -2.3588 H           1 ZZL       0.0543
     42 H8         -0.0209  -11.9044   -5.2014 H           1 ZZL       0.2170
     43 H9          0.7309   -7.5357   -5.4811 H           1 ZZL       0.0835
     44 H10         6.9123   -3.9717   -0.3162 H           1 ZZL       0.0588
     45 H11         7.2679   -7.5997   -2.4163 H           1 ZZL       0.0697
     46 H12         5.1710  -11.1316   -4.9756 H           1 ZZL       0.0662
     47 H13         1.2871  -13.8718   -6.3720 H           1 ZZL       0.0543
     48 H14         2.3472  -15.9458   -5.8353 H           1 ZZL       0.0621
@<TRIPOS>BOND
     1    21     1   1
     2     1    22   1
     3     2     7   1
     4    22     2   2
     5     2    23   1
     6    23     3  ar
     7     3    24   1
     8     3    25  ar
     9     5     4  ar
    10    25     4  ar
    11     6     5  ar
    12    23     6  ar
    13     6    26   1
    14     7    27  ar
    15     7    30  ar
    16     8     9  ar
    17    27     8  ar
    18     8    28   1
    19     9    29  ar
    20    11    10  ar
    21    11    12  ar
    22    13    11   1
    23    14    13  ar
    24    13    34  ar
    25    15    14  ar
    26    16    15  ar
    27    17    16   1
    28    16    33  ar
    29    18    17   1
    30    19    18  ar
    31    18    32  ar
    32    20    19  ar
    33    20    21  ar
    34    21    31  ar
    35    29    30  ar
    36    30    31   1
    37    31    32  ar
    38    33    34  ar
    39     1    35   1
    40     1    36   1
    41     4    37   1
    42     5    38   1
    43     9    39   1
    44    14    40   1
    45    15    41   1
    46    17    42   1
    47    20    43   1
    48    25    44   1
    49    27    45   1
    50    29    46   1
    51    33    47   1
    52    34    48   1
@<TRIPOS>SUBSTRUCTURE
     1  ZZL      1

