@<TRIPOS>MOLECULE
2wtv_ligand_044
    48    52
SMALL
GAST_HUCK
****
This file was generated by PARSER (from files_GN.cpp)

@<TRIPOS>ATOM
      1 C13        14.6584   -9.6940   -8.0762 C.3         1 ZZL       0.0407
      2 C15        15.3673  -11.9528   -7.4873 C.2         1 ZZL       0.0550
      3 C17        16.3079  -13.7190   -6.0409 C.ar        1 ZZL       0.1522
      4 C20        18.7198  -14.0463   -5.8905 C.ar        1 ZZL      -0.0589
      5 C21        18.9182  -12.9789   -6.7779 C.ar        1 ZZL      -0.0237
      6 C22        17.8144  -12.2881   -7.3148 C.ar        1 ZZL       0.1522
      7 C24        14.1787  -12.5988   -7.9123 C.ar        1 ZZL       0.0251
      8 C26        13.1752  -14.5680   -9.0177 C.ar        1 ZZL       0.0501
      9 C28        11.8978  -14.0126   -8.8672 C.ar        1 ZZL      -0.0388
     10 O01         6.4739  -14.1824   -2.5642 O.co2       1 ZZL      -0.5638
     11 C02         6.2061  -13.1892   -3.4433 C.2         1 ZZL       0.0552
     12 O03         4.9468  -13.1347   -3.9344 O.co2       1 ZZL      -0.5638
     13 C04         7.1971  -12.2547   -3.8313 C.ar        1 ZZL      -0.0018
     14 C05         7.1356  -11.6171   -5.0937 C.ar        1 ZZL      -0.0573
     15 C06         8.1178  -10.6871   -5.4821 C.ar        1 ZZL      -0.0347
     16 C07         9.1618  -10.3495   -4.5979 C.ar        1 ZZL       0.0671
     17 N08        10.0422   -9.3682   -4.9070 N.pl3       1 ZZL      -0.2432
     18 C09        11.1347   -9.5114   -5.6881 C.ar        1 ZZL       0.2053
     19 N10        11.9332   -8.4292   -5.8273 N.ar        1 ZZL      -0.2577
     20 C11        13.0589   -8.4648   -6.5759 C.ar        1 ZZL       0.0185
     21 C12        13.4337   -9.6476   -7.2492 C.ar        1 ZZL       0.0154
     22 N14        15.5097  -10.6745   -7.5917 N.2         1 ZZL      -0.3323
     23 C16        16.4795  -12.6427   -6.9594 C.ar        1 ZZL       0.0838
     24 F18        15.1261  -14.0862   -5.6126 F           1 ZZL      -0.1759
     25 C19        17.4173  -14.4184   -5.5269 C.ar        1 ZZL      -0.0237
     26 F23        18.0782  -11.3368   -8.1752 F           1 ZZL      -0.1759
     27 C25        14.2984  -13.8595   -8.5591 C.ar        1 ZZL      -0.0267
     28 CL1        13.3583  -16.0847   -9.7476 Cl          1 ZZL      -0.0667
     29 C29        11.7502  -12.7645   -8.2441 C.ar        1 ZZL      -0.0425
     30 C30        12.8645  -12.0423   -7.7461 C.ar        1 ZZL       0.0182
     31 C31        12.5993  -10.7878   -7.1018 C.ar        1 ZZL       0.0633
     32 N32        11.4839  -10.6629   -6.3235 N.ar        1 ZZL      -0.2522
     33 C33         9.2291  -10.9725   -3.3359 C.ar        1 ZZL      -0.0347
     34 C34         8.2679  -11.9296   -2.9646 C.ar        1 ZZL      -0.0573
     35 H1         15.1971   -8.7452   -8.0520 H           1 ZZL       0.0550
     36 H2         14.3933   -9.9022   -9.1155 H           1 ZZL       0.0550
     37 H3         19.5225  -14.5485   -5.5065 H           1 ZZL       0.0651
     38 H4         19.8720  -12.7103   -7.0350 H           1 ZZL       0.0588
     39 H5         11.0727  -14.5080   -9.2126 H           1 ZZL       0.0679
     40 H6          6.3784  -11.8302   -5.7478 H           1 ZZL       0.0621
     41 H7          8.0552  -10.2427   -6.4007 H           1 ZZL       0.0543
     42 H8          9.8815   -8.4919   -4.5179 H           1 ZZL       0.2170
     43 H9         13.6249   -7.6172   -6.6416 H           1 ZZL       0.0835
     44 H10        17.2813  -15.1952   -4.8760 H           1 ZZL       0.0588
     45 H11        15.2209  -14.2761   -8.7149 H           1 ZZL       0.0697
     46 H12        10.8057  -12.3788   -8.1724 H           1 ZZL       0.0662
     47 H13         9.9747  -10.7226   -2.6806 H           1 ZZL       0.0543
     48 H14         8.3437  -12.3622   -2.0403 H           1 ZZL       0.0621
@<TRIPOS>BOND
     1    21     1   1
     2     1    22   1
     3     2     7   1
     4    22     2   2
     5     2    23   1
     6    23     3  ar
     7     3    24   1
     8     3    25  ar
     9     5     4  ar
    10    25     4  ar
    11     6     5  ar
    12    23     6  ar
    13     6    26   1
    14     7    27  ar
    15     7    30  ar
    16     8     9  ar
    17    27     8  ar
    18     8    28   1
    19     9    29  ar
    20    11    10  ar
    21    11    12  ar
    22    13    11   1
    23    14    13  ar
    24    13    34  ar
    25    15    14  ar
    26    16    15  ar
    27    17    16   1
    28    16    33  ar
    29    18    17   1
    30    19    18  ar
    31    18    32  ar
    32    20    19  ar
    33    20    21  ar
    34    21    31  ar
    35    29    30  ar
    36    30    31   1
    37    31    32  ar
    38    33    34  ar
    39     1    35   1
    40     1    36   1
    41     4    37   1
    42     5    38   1
    43     9    39   1
    44    14    40   1
    45    15    41   1
    46    17    42   1
    47    20    43   1
    48    25    44   1
    49    27    45   1
    50    29    46   1
    51    33    47   1
    52    34    48   1
@<TRIPOS>SUBSTRUCTURE
     1  ZZL      1

