@<TRIPOS>MOLECULE
2wtv_ligand_093
    48    52
SMALL
GAST_HUCK
****
This file was generated by PARSER (from files_GN.cpp)

@<TRIPOS>ATOM
      1 C13         6.2877   -8.2241   -5.9055 C.3         1 ZZL       0.0407
      2 C15         7.1988   -8.8027   -3.7343 C.2         1 ZZL       0.0550
      3 C17         8.9796  -10.4150   -3.3438 C.ar        1 ZZL       0.1522
      4 C20        10.8765   -9.8422   -1.9219 C.ar        1 ZZL      -0.0589
      5 C21        10.3559   -8.5486   -1.7484 C.ar        1 ZZL      -0.0237
      6 C22         9.1574   -8.1756   -2.3857 C.ar        1 ZZL       0.1522
      7 C24         5.9768   -8.7980   -3.0161 C.ar        1 ZZL       0.0251
      8 C26         4.7959   -8.2398   -0.9170 C.ar        1 ZZL       0.0501
      9 C28         3.5822   -8.6280   -1.4858 C.ar        1 ZZL      -0.0388
     10 O01        -1.5713  -16.0592   -3.5727 O.co2       1 ZZL      -0.5638
     11 C02        -0.7304  -15.1363   -3.0553 C.2         1 ZZL       0.0552
     12 O03        -0.4879  -15.1170   -1.7303 O.co2       1 ZZL      -0.5638
     13 C04         0.1159  -14.4269   -3.8965 C.ar        1 ZZL      -0.0018
     14 C05        -0.2157  -13.1133   -4.2851 C.ar        1 ZZL      -0.0573
     15 C06         0.6301  -12.3957   -5.1445 C.ar        1 ZZL      -0.0347
     16 C07         1.8221  -12.9852   -5.6051 C.ar        1 ZZL       0.0671
     17 N08         2.5784  -12.3652   -6.5317 N.pl3       1 ZZL      -0.2432
     18 C09         3.4451  -11.3597   -6.3059 C.ar        1 ZZL       0.2053
     19 N10         4.1797  -10.9567   -7.3650 N.ar        1 ZZL      -0.2577
     20 C11         5.1103   -9.9822   -7.2562 C.ar        1 ZZL       0.0185
     21 C12         5.3214   -9.3342   -6.0199 C.ar        1 ZZL       0.0154
     22 N14         7.2783   -8.5624   -4.9969 N.2         1 ZZL      -0.3323
     23 C16         8.4242   -9.1228   -3.1508 C.ar        1 ZZL       0.0838
     24 F18         8.3817  -11.3136   -4.0850 F           1 ZZL      -0.1759
     25 C19        10.2004  -10.7657   -2.7356 C.ar        1 ZZL      -0.0237
     26 F23         8.7535   -6.9399   -2.2374 F           1 ZZL      -0.1759
     27 C25         5.9695   -8.3381   -1.6713 C.ar        1 ZZL      -0.0267
     28 CL1         4.8340   -7.6228    0.6565 Cl          1 ZZL      -0.0667
     29 C29         3.5484   -9.1250   -2.7938 C.ar        1 ZZL      -0.0425
     30 C30         4.7255   -9.2260   -3.5802 C.ar        1 ZZL       0.0182
     31 C31         4.5740   -9.7758   -4.8977 C.ar        1 ZZL       0.0633
     32 N32         3.6599  -10.7725   -5.0980 N.ar        1 ZZL      -0.2522
     33 C33         2.1592  -14.2960   -5.2079 C.ar        1 ZZL      -0.0347
     34 C34         1.3183  -15.0121   -4.3412 C.ar        1 ZZL      -0.0573
     35 H1          5.7752   -7.3131   -5.5855 H           1 ZZL       0.0550
     36 H2          6.7571   -8.0174   -6.8667 H           1 ZZL       0.0550
     37 H3         11.7524  -10.1073   -1.4672 H           1 ZZL       0.0651
     38 H4         10.8552   -7.8723   -1.1678 H           1 ZZL       0.0588
     39 H5          2.7185   -8.5466   -0.9519 H           1 ZZL       0.0679
     40 H6         -1.0879  -12.6814   -3.9727 H           1 ZZL       0.0621
     41 H7          0.3552  -11.4607   -5.4610 H           1 ZZL       0.0543
     42 H8          2.5908  -12.7619   -7.4158 H           1 ZZL       0.2170
     43 H9          5.6429   -9.7219   -8.0893 H           1 ZZL       0.0835
     44 H10        10.6004  -11.6965   -2.8796 H           1 ZZL       0.0588
     45 H11         6.8179   -8.0313   -1.2093 H           1 ZZL       0.0697
     46 H12         2.6358   -9.3953   -3.1719 H           1 ZZL       0.0662
     47 H13         3.0167  -14.7365   -5.5389 H           1 ZZL       0.0543
     48 H14         1.5912  -15.9536   -4.0493 H           1 ZZL       0.0621
@<TRIPOS>BOND
     1    21     1   1
     2     1    22   1
     3     2     7   1
     4    22     2   2
     5     2    23   1
     6    23     3  ar
     7     3    24   1
     8     3    25  ar
     9     5     4  ar
    10    25     4  ar
    11     6     5  ar
    12    23     6  ar
    13     6    26   1
    14     7    27  ar
    15     7    30  ar
    16     8     9  ar
    17    27     8  ar
    18     8    28   1
    19     9    29  ar
    20    11    10  ar
    21    11    12  ar
    22    13    11   1
    23    14    13  ar
    24    13    34  ar
    25    15    14  ar
    26    16    15  ar
    27    17    16   1
    28    16    33  ar
    29    18    17   1
    30    19    18  ar
    31    18    32  ar
    32    20    19  ar
    33    20    21  ar
    34    21    31  ar
    35    29    30  ar
    36    30    31   1
    37    31    32  ar
    38    33    34  ar
    39     1    35   1
    40     1    36   1
    41     4    37   1
    42     5    38   1
    43     9    39   1
    44    14    40   1
    45    15    41   1
    46    17    42   1
    47    20    43   1
    48    25    44   1
    49    27    45   1
    50    29    46   1
    51    33    47   1
    52    34    48   1
@<TRIPOS>SUBSTRUCTURE
     1  ZZL      1

