@<TRIPOS>MOLECULE
2wtv_ligand_017
    48    52
SMALL
GAST_HUCK
****
This file was generated by PARSER (from files_GN.cpp)

@<TRIPOS>ATOM
      1 C13        11.6061  -15.4200   -5.3211 C.3         1 ZZL       0.0407
      2 C15        13.8015  -14.4621   -5.6839 C.2         1 ZZL       0.0550
      3 C17        15.9637  -15.2969   -6.5046 C.ar        1 ZZL       0.1522
      4 C20        16.8263  -14.4947   -8.6397 C.ar        1 ZZL      -0.0589
      5 C21        15.6574  -13.7371   -8.8279 C.ar        1 ZZL      -0.0237
      6 C22        14.6596  -13.7195   -7.8371 C.ar        1 ZZL       0.1522
      7 C24        13.8534  -13.6484   -4.5269 C.ar        1 ZZL       0.0251
      8 C26        15.2298  -12.6958   -2.7007 C.ar        1 ZZL       0.0501
      9 C28        14.0963  -12.0835   -2.1516 C.ar        1 ZZL      -0.0388
     10 O01         2.5252   -8.8779   -5.6078 O.co2       1 ZZL      -0.5638
     11 C02         3.2666   -9.8741   -6.1520 C.2         1 ZZL       0.0552
     12 O03         2.6316  -10.7118   -7.0149 O.co2       1 ZZL      -0.5638
     13 C04         4.6250  -10.0564   -5.8225 C.ar        1 ZZL      -0.0018
     14 C05         5.5716  -10.4364   -6.8070 C.ar        1 ZZL      -0.0573
     15 C06         6.9245  -10.6240   -6.4668 C.ar        1 ZZL      -0.0347
     16 C07         7.3639  -10.4628   -5.1388 C.ar        1 ZZL       0.0671
     17 N08         8.6494  -10.6815   -4.7497 N.pl3       1 ZZL      -0.2432
     18 C09         9.3647  -11.8055   -4.9781 C.ar        1 ZZL       0.2053
     19 N10         8.8534  -12.8781   -5.6383 N.ar        1 ZZL      -0.2577
     20 C11         9.5561  -14.0325   -5.7843 C.ar        1 ZZL       0.0185
     21 C12        10.8512  -14.1482   -5.2298 C.ar        1 ZZL       0.0154
     22 N14        12.7971  -15.2052   -5.9887 N.2         1 ZZL      -0.3323
     23 C16        14.8096  -14.4798   -6.6470 C.ar        1 ZZL       0.0838
     24 F18        16.1157  -16.0920   -5.4772 F           1 ZZL      -0.1759
     25 C19        16.9765  -15.2752   -7.4817 C.ar        1 ZZL      -0.0237
     26 F23        13.5861  -13.0004   -8.0538 F           1 ZZL      -0.1759
     27 C25        15.1042  -13.4602   -3.8707 C.ar        1 ZZL      -0.0267
     28 CL1        16.7308  -12.5165   -1.9393 Cl          1 ZZL      -0.0667
     29 C29        12.8556  -12.2253   -2.7843 C.ar        1 ZZL      -0.0425
     30 C30        12.7036  -12.9897   -3.9732 C.ar        1 ZZL       0.0182
     31 C31        11.3957  -13.0188   -4.5656 C.ar        1 ZZL       0.0633
     32 N32        10.6145  -11.9073   -4.4659 N.ar        1 ZZL      -0.2522
     33 C33         6.4298  -10.0576   -4.1578 C.ar        1 ZZL      -0.0347
     34 C34         5.0792   -9.8625   -4.4958 C.ar        1 ZZL      -0.0573
     35 H1         11.0464  -16.1799   -5.8723 H           1 ZZL       0.0550
     36 H2         11.7939  -15.8125   -4.3166 H           1 ZZL       0.0550
     37 H3         17.5594  -14.4925   -9.3549 H           1 ZZL       0.0651
     38 H4         15.5376  -13.2022   -9.6919 H           1 ZZL       0.0588
     39 H5         14.1688  -11.5279   -1.2976 H           1 ZZL       0.0679
     40 H6          5.2900  -10.5501   -7.7829 H           1 ZZL       0.0621
     41 H7          7.5949  -10.8749   -7.2005 H           1 ZZL       0.0543
     42 H8          9.0371  -10.0479   -4.1204 H           1 ZZL       0.2170
     43 H9          9.1199  -14.8094   -6.2756 H           1 ZZL       0.0835
     44 H10        17.8230  -15.8386   -7.3592 H           1 ZZL       0.0588
     45 H11        15.9534  -13.8954   -4.2288 H           1 ZZL       0.0697
     46 H12        12.0505  -11.7606   -2.3524 H           1 ZZL       0.0662
     47 H13         6.7277   -9.9382   -3.1892 H           1 ZZL       0.0543
     48 H14         4.4269   -9.5938   -3.7568 H           1 ZZL       0.0621
@<TRIPOS>BOND
     1    21     1   1
     2     1    22   1
     3     2     7   1
     4    22     2   2
     5     2    23   1
     6    23     3  ar
     7     3    24   1
     8     3    25  ar
     9     5     4  ar
    10    25     4  ar
    11     6     5  ar
    12    23     6  ar
    13     6    26   1
    14     7    27  ar
    15     7    30  ar
    16     8     9  ar
    17    27     8  ar
    18     8    28   1
    19     9    29  ar
    20    11    10  ar
    21    11    12  ar
    22    13    11   1
    23    14    13  ar
    24    13    34  ar
    25    15    14  ar
    26    16    15  ar
    27    17    16   1
    28    16    33  ar
    29    18    17   1
    30    19    18  ar
    31    18    32  ar
    32    20    19  ar
    33    20    21  ar
    34    21    31  ar
    35    29    30  ar
    36    30    31   1
    37    31    32  ar
    38    33    34  ar
    39     1    35   1
    40     1    36   1
    41     4    37   1
    42     5    38   1
    43     9    39   1
    44    14    40   1
    45    15    41   1
    46    17    42   1
    47    20    43   1
    48    25    44   1
    49    27    45   1
    50    29    46   1
    51    33    47   1
    52    34    48   1
@<TRIPOS>SUBSTRUCTURE
     1  ZZL      1

