@<TRIPOS>MOLECULE
2wtv_ligand_032
    48    52
SMALL
GAST_HUCK
****
This file was generated by PARSER (from files_GN.cpp)

@<TRIPOS>ATOM
      1 C13         4.1752   -7.5275    0.2517 C.3         1 ZZL       0.0407
      2 C15         3.8510   -8.2930   -2.0249 C.2         1 ZZL       0.0550
      3 C17         2.5839   -7.4015   -3.9147 C.ar        1 ZZL       0.1522
      4 C20         0.7113   -8.6701   -4.8313 C.ar        1 ZZL      -0.0589
      5 C21         0.9526   -9.7013   -3.9081 C.ar        1 ZZL      -0.0237
      6 C22         2.0043   -9.5888   -2.9801 C.ar        1 ZZL       0.1522
      7 C24         5.1954   -8.5718   -2.3331 C.ar        1 ZZL       0.0251
      8 C26         6.7881  -10.0434   -3.5131 C.ar        1 ZZL       0.0501
      9 C28         7.8599   -9.2730   -3.0444 C.ar        1 ZZL      -0.0388
     10 O01        12.4334   -1.2551   -4.7067 O.co2       1 ZZL      -0.5638
     11 C02        12.0658   -2.5308   -4.4019 C.2         1 ZZL       0.0552
     12 O03        12.6999   -3.5601   -5.0260 O.co2       1 ZZL      -0.5638
     13 C04        11.0052   -2.7797   -3.5121 C.ar        1 ZZL      -0.0018
     14 C05        10.7993   -1.9464   -2.3928 C.ar        1 ZZL      -0.0573
     15 C06         9.7346   -2.1999   -1.5131 C.ar        1 ZZL      -0.0347
     16 C07         8.8256   -3.2539   -1.7552 C.ar        1 ZZL       0.0671
     17 N08         7.7831   -3.3627   -0.8813 N.pl3       1 ZZL      -0.2432
     18 C09         6.9144   -4.3778   -0.6796 C.ar        1 ZZL       0.2053
     19 N10         5.9374   -4.1998    0.2400 N.ar        1 ZZL      -0.2577
     20 C11         5.0546   -5.1796    0.5493 C.ar        1 ZZL       0.0185
     21 C12         5.1311   -6.4392   -0.0848 C.ar        1 ZZL       0.0154
     22 N14         3.4534   -7.8422   -0.8882 N.2         1 ZZL      -0.3323
     23 C16         2.8285   -8.4315   -2.9697 C.ar        1 ZZL       0.0838
     24 F18         3.2916   -6.3011   -3.9273 F           1 ZZL      -0.1759
     25 C19         1.5280   -7.5250   -4.8388 C.ar        1 ZZL      -0.0237
     26 F23         2.1910  -10.5633   -2.1294 F           1 ZZL      -0.1759
     27 C25         5.4779   -9.6883   -3.1623 C.ar        1 ZZL      -0.0267
     28 CL1         7.0543  -11.4026   -4.4913 Cl          1 ZZL      -0.0667
     29 C29         7.6177   -8.1589   -2.2310 C.ar        1 ZZL      -0.0425
     30 C30         6.2977   -7.7944   -1.8598 C.ar        1 ZZL       0.0182
     31 C31         6.1337   -6.6156   -1.0703 C.ar        1 ZZL       0.0633
     32 N32         6.9652   -5.5719   -1.3038 N.ar        1 ZZL      -0.2522
     33 C33         9.0255   -4.0616   -2.8997 C.ar        1 ZZL      -0.0347
     34 C34        10.1131   -3.8460   -3.7522 C.ar        1 ZZL      -0.0573
     35 H1          3.4763   -7.2388    1.0291 H           1 ZZL       0.0550
     36 H2          4.7222   -8.4165    0.6114 H           1 ZZL       0.0550
     37 H3         -0.0715   -8.7444   -5.4872 H           1 ZZL       0.0651
     38 H4          0.3484  -10.5260   -3.9024 H           1 ZZL       0.0588
     39 H5          8.8247   -9.5201   -3.2993 H           1 ZZL       0.0679
     40 H6         11.4312   -1.1625   -2.1963 H           1 ZZL       0.0621
     41 H7          9.6208   -1.5886   -0.6900 H           1 ZZL       0.0543
     42 H8          7.6744   -2.6136   -0.2709 H           1 ZZL       0.2170
     43 H9          4.3323   -4.9742    1.2431 H           1 ZZL       0.0835
     44 H10         1.3298   -6.7707   -5.4997 H           1 ZZL       0.0588
     45 H11         4.7151  -10.2794   -3.5148 H           1 ZZL       0.0697
     46 H12         8.4243   -7.6239   -1.9126 H           1 ZZL       0.0662
     47 H13         8.3710   -4.7874   -3.1678 H           1 ZZL       0.0543
     48 H14        10.2227   -4.4401   -4.5854 H           1 ZZL       0.0621
@<TRIPOS>BOND
     1    21     1   1
     2     1    22   1
     3     2     7   1
     4    22     2   2
     5     2    23   1
     6    23     3  ar
     7     3    24   1
     8     3    25  ar
     9     5     4  ar
    10    25     4  ar
    11     6     5  ar
    12    23     6  ar
    13     6    26   1
    14     7    27  ar
    15     7    30  ar
    16     8     9  ar
    17    27     8  ar
    18     8    28   1
    19     9    29  ar
    20    11    10  ar
    21    11    12  ar
    22    13    11   1
    23    14    13  ar
    24    13    34  ar
    25    15    14  ar
    26    16    15  ar
    27    17    16   1
    28    16    33  ar
    29    18    17   1
    30    19    18  ar
    31    18    32  ar
    32    20    19  ar
    33    20    21  ar
    34    21    31  ar
    35    29    30  ar
    36    30    31   1
    37    31    32  ar
    38    33    34  ar
    39     1    35   1
    40     1    36   1
    41     4    37   1
    42     5    38   1
    43     9    39   1
    44    14    40   1
    45    15    41   1
    46    17    42   1
    47    20    43   1
    48    25    44   1
    49    27    45   1
    50    29    46   1
    51    33    47   1
    52    34    48   1
@<TRIPOS>SUBSTRUCTURE
     1  ZZL      1

