@<TRIPOS>MOLECULE
2wtv_ligand_004
    48    52
SMALL
GAST_HUCK
****
This file was generated by PARSER (from files_GN.cpp)

@<TRIPOS>ATOM
      1 C13        11.3836   -8.8793   -4.4093 C.3         1 ZZL       0.0407
      2 C15        10.1296  -10.8871   -4.9049 C.2         1 ZZL       0.0550
      3 C17        10.0254  -12.9705   -3.6594 C.ar        1 ZZL       0.1522
      4 C20        10.5581  -15.0773   -4.7617 C.ar        1 ZZL      -0.0589
      5 C21        10.8099  -14.3929   -5.9627 C.ar        1 ZZL      -0.0237
      6 C22        10.6950  -12.9918   -6.0134 C.ar        1 ZZL       0.1522
      7 C24         8.8799  -10.2915   -5.1801 C.ar        1 ZZL       0.0251
      8 C26         6.8231  -10.2975   -6.5468 C.ar        1 ZZL       0.0501
      9 C28         6.3459   -9.1864   -5.8431 C.ar        1 ZZL      -0.0388
     10 O01         1.9553   -7.0986    1.1418 O.co2       1 ZZL      -0.5638
     11 C02         2.5785   -6.3424    0.2132 C.2         1 ZZL       0.0552
     12 O03         1.8437   -5.6711   -0.7029 O.co2       1 ZZL      -0.5638
     13 C04         3.9627   -6.4555    0.0519 C.ar        1 ZZL      -0.0018
     14 C05         4.8012   -5.4008    0.4648 C.ar        1 ZZL      -0.0573
     15 C06         6.1976   -5.5088    0.3239 C.ar        1 ZZL      -0.0347
     16 C07         6.7806   -6.6567   -0.2586 C.ar        1 ZZL       0.0671
     17 N08         8.1460   -6.6719   -0.3805 N.pl3       1 ZZL      -0.2432
     18 C09         8.9014   -7.2571   -1.3389 C.ar        1 ZZL       0.2053
     19 N10        10.2508   -7.1361   -1.2723 N.ar        1 ZZL      -0.2577
     20 C11        11.0634   -7.6658   -2.2238 C.ar        1 ZZL       0.0185
     21 C12        10.5221   -8.3589   -3.3318 C.ar        1 ZZL       0.0154
     22 N14        11.1868  -10.2400   -4.5598 N.2         1 ZZL      -0.3323
     23 C16        10.2795  -12.2676   -4.8664 C.ar        1 ZZL       0.0838
     24 F18         9.6611  -12.3473   -2.5669 F           1 ZZL      -0.1759
     25 C19        10.1674  -14.3695   -3.6120 C.ar        1 ZZL      -0.0237
     26 F23        10.9643  -12.3893   -7.1442 F           1 ZZL      -0.1759
     27 C25         8.0733  -10.8393   -6.2144 C.ar        1 ZZL      -0.0267
     28 CL1         5.9018  -10.9706   -7.7967 Cl          1 ZZL      -0.0667
     29 C29         7.1157   -8.6294   -4.8145 C.ar        1 ZZL      -0.0425
     30 C30         8.3905   -9.1524   -4.4613 C.ar        1 ZZL       0.0182
     31 C31         9.1056   -8.4967   -3.3941 C.ar        1 ZZL       0.0633
     32 N32         8.3732   -7.9297   -2.3927 N.ar        1 ZZL      -0.2522
     33 C33         5.9291   -7.7252   -0.6403 C.ar        1 ZZL      -0.0347
     34 C34         4.5344   -7.6235   -0.4894 C.ar        1 ZZL      -0.0573
     35 H1         12.4398   -8.7213   -4.1897 H           1 ZZL       0.0550
     36 H2         11.1593   -8.3630   -5.3440 H           1 ZZL       0.0550
     37 H3         10.6544  -16.0943   -4.7282 H           1 ZZL       0.0651
     38 H4         11.0775  -14.9207   -6.7976 H           1 ZZL       0.0588
     39 H5          5.4419   -8.7705   -6.0795 H           1 ZZL       0.0679
     40 H6          4.4079   -4.5553    0.8855 H           1 ZZL       0.0621
     41 H7          6.7855   -4.7382    0.6344 H           1 ZZL       0.0543
     42 H8          8.6362   -6.1167    0.2532 H           1 ZZL       0.2170
     43 H9         12.0720   -7.5415   -2.1263 H           1 ZZL       0.0835
     44 H10         9.9790  -14.8772   -2.7429 H           1 ZZL       0.0588
     45 H11         8.4015  -11.6357   -6.7631 H           1 ZZL       0.0697
     46 H12         6.7366   -7.8059   -4.3355 H           1 ZZL       0.0662
     47 H13         6.3141   -8.5970   -1.0081 H           1 ZZL       0.0543
     48 H14         3.9360   -8.4063   -0.7824 H           1 ZZL       0.0621
@<TRIPOS>BOND
     1    21     1   1
     2     1    22   1
     3     2     7   1
     4    22     2   2
     5     2    23   1
     6    23     3  ar
     7     3    24   1
     8     3    25  ar
     9     5     4  ar
    10    25     4  ar
    11     6     5  ar
    12    23     6  ar
    13     6    26   1
    14     7    27  ar
    15     7    30  ar
    16     8     9  ar
    17    27     8  ar
    18     8    28   1
    19     9    29  ar
    20    11    10  ar
    21    11    12  ar
    22    13    11   1
    23    14    13  ar
    24    13    34  ar
    25    15    14  ar
    26    16    15  ar
    27    17    16   1
    28    16    33  ar
    29    18    17   1
    30    19    18  ar
    31    18    32  ar
    32    20    19  ar
    33    20    21  ar
    34    21    31  ar
    35    29    30  ar
    36    30    31   1
    37    31    32  ar
    38    33    34  ar
    39     1    35   1
    40     1    36   1
    41     4    37   1
    42     5    38   1
    43     9    39   1
    44    14    40   1
    45    15    41   1
    46    17    42   1
    47    20    43   1
    48    25    44   1
    49    27    45   1
    50    29    46   1
    51    33    47   1
    52    34    48   1
@<TRIPOS>SUBSTRUCTURE
     1  ZZL      1

