@<TRIPOS>MOLECULE
2wtv_ligand_057
    48    52
SMALL
GAST_HUCK
****
This file was generated by PARSER (from files_GN.cpp)

@<TRIPOS>ATOM
      1 C13         9.5687  -13.7805   -3.8527 C.3         1 ZZL       0.0407
      2 C15        11.8615  -13.2875   -4.4803 C.2         1 ZZL       0.0550
      3 C17        13.3021  -14.7764   -5.7820 C.ar        1 ZZL       0.1522
      4 C20        14.4764  -13.9259   -7.7437 C.ar        1 ZZL      -0.0589
      5 C21        13.9215  -12.6533   -7.5238 C.ar        1 ZZL      -0.0237
      6 C22        13.0619  -12.4328   -6.4313 C.ar        1 ZZL       0.1522
      7 C24        12.2302  -12.5439   -3.3357 C.ar        1 ZZL       0.0251
      8 C26        14.0097  -11.9768   -1.7140 C.ar        1 ZZL       0.0501
      9 C28        13.1158  -11.1595   -1.0086 C.ar        1 ZZL      -0.0388
     10 O01         2.0949   -6.3328   -4.9507 O.co2       1 ZZL      -0.5638
     11 C02         2.7997   -6.1638   -3.8085 C.2         1 ZZL       0.0552
     12 O03         2.1846   -5.4490   -2.8352 O.co2       1 ZZL      -0.5638
     13 C04         4.0894   -6.7324   -3.6261 C.ar        1 ZZL      -0.0018
     14 C05         4.7718   -7.3800   -4.6848 C.ar        1 ZZL      -0.0573
     15 C06         6.0259   -7.9873   -4.4802 C.ar        1 ZZL      -0.0347
     16 C07         6.6351   -7.9627   -3.2034 C.ar        1 ZZL       0.0671
     17 N08         7.8546   -8.5094   -2.9474 N.pl3       1 ZZL      -0.2432
     18 C09         8.2489   -9.7687   -3.2484 C.ar        1 ZZL       0.2053
     19 N10         7.4534  -10.6713   -3.8692 N.ar        1 ZZL      -0.2577
     20 C11         7.8551  -11.9437   -4.0868 C.ar        1 ZZL       0.0185
     21 C12         9.1310  -12.3788   -3.6576 C.ar        1 ZZL       0.0154
     22 N14        10.6958  -13.8092   -4.6572 N.2         1 ZZL      -0.3323
     23 C16        12.7349  -13.4955   -5.5490 C.ar        1 ZZL       0.0838
     24 F18        13.0629  -15.7824   -4.9805 F           1 ZZL      -0.1759
     25 C19        14.1692  -14.9840   -6.8709 C.ar        1 ZZL      -0.0237
     26 F23        12.5631  -11.2320   -6.2728 F           1 ZZL      -0.1759
     27 C25        13.5676  -12.6563   -2.8636 C.ar        1 ZZL      -0.0267
     28 CL1        15.6056  -12.1487   -1.1756 Cl          1 ZZL      -0.0667
     29 C29        11.7990  -11.0125   -1.4600 C.ar        1 ZZL      -0.0425
     30 C30        11.3233  -11.6907   -2.6183 C.ar        1 ZZL       0.0182
     31 C31         9.9765  -11.4243   -3.0312 C.ar        1 ZZL       0.0633
     32 N32         9.4820  -10.1669   -2.8472 N.ar        1 ZZL      -0.2522
     33 C33         5.9784   -7.2855   -2.1562 C.ar        1 ZZL      -0.0347
     34 C34         4.7249   -6.6875   -2.3618 C.ar        1 ZZL      -0.0573
     35 H1          8.7933  -14.3744   -4.3429 H           1 ZZL       0.0550
     36 H2          9.7803  -14.2465   -2.8869 H           1 ZZL       0.0550
     37 H3         15.0996  -14.0829   -8.5396 H           1 ZZL       0.0651
     38 H4         14.1502  -11.8896   -8.1656 H           1 ZZL       0.0588
     39 H5         13.4253  -10.6559   -0.1726 H           1 ZZL       0.0679
     40 H6          4.3670   -7.4033   -5.6275 H           1 ZZL       0.0621
     41 H7          6.5155   -8.4210   -5.2649 H           1 ZZL       0.0543
     42 H8          8.4457   -8.0069   -2.3653 H           1 ZZL       0.2170
     43 H9          7.2205  -12.5819   -4.5680 H           1 ZZL       0.0835
     44 H10        14.5847  -15.9057   -7.0320 H           1 ZZL       0.0588
     45 H11        14.2445  -13.2481   -3.3500 H           1 ZZL       0.0697
     46 H12        11.1809  -10.4003   -0.9230 H           1 ZZL       0.0662
     47 H13         6.3982   -7.2638   -1.2211 H           1 ZZL       0.0543
     48 H14         4.2675   -6.2397   -1.5643 H           1 ZZL       0.0621
@<TRIPOS>BOND
     1    21     1   1
     2     1    22   1
     3     2     7   1
     4    22     2   2
     5     2    23   1
     6    23     3  ar
     7     3    24   1
     8     3    25  ar
     9     5     4  ar
    10    25     4  ar
    11     6     5  ar
    12    23     6  ar
    13     6    26   1
    14     7    27  ar
    15     7    30  ar
    16     8     9  ar
    17    27     8  ar
    18     8    28   1
    19     9    29  ar
    20    11    10  ar
    21    11    12  ar
    22    13    11   1
    23    14    13  ar
    24    13    34  ar
    25    15    14  ar
    26    16    15  ar
    27    17    16   1
    28    16    33  ar
    29    18    17   1
    30    19    18  ar
    31    18    32  ar
    32    20    19  ar
    33    20    21  ar
    34    21    31  ar
    35    29    30  ar
    36    30    31   1
    37    31    32  ar
    38    33    34  ar
    39     1    35   1
    40     1    36   1
    41     4    37   1
    42     5    38   1
    43     9    39   1
    44    14    40   1
    45    15    41   1
    46    17    42   1
    47    20    43   1
    48    25    44   1
    49    27    45   1
    50    29    46   1
    51    33    47   1
    52    34    48   1
@<TRIPOS>SUBSTRUCTURE
     1  ZZL      1

