@<TRIPOS>MOLECULE
2wtv_ligand_072
    48    52
SMALL
GAST_HUCK
****
This file was generated by PARSER (from files_GN.cpp)

@<TRIPOS>ATOM
      1 C13         2.7948  -18.4694   -2.6635 C.3         1 ZZL       0.0407
      2 C15         4.0530  -20.2044   -3.8211 C.2         1 ZZL       0.0550
      3 C17         5.2459  -21.3521   -5.6496 C.ar        1 ZZL       0.1522
      4 C20         4.0295  -22.5677   -7.3761 C.ar        1 ZZL      -0.0589
      5 C21         2.8167  -22.1938   -6.7820 C.ar        1 ZZL      -0.0237
      6 C22         2.8140  -21.4262   -5.6006 C.ar        1 ZZL       0.1522
      7 C24         5.0942  -20.2647   -2.8647 C.ar        1 ZZL       0.0251
      8 C26         6.6070  -21.7038   -1.5562 C.ar        1 ZZL       0.0501
      9 C28         7.2149  -20.5709   -1.0002 C.ar        1 ZZL      -0.0388
     10 O01         5.1071   -8.2573   -2.7897 O.co2       1 ZZL      -0.5638
     11 C02         5.9533   -8.9924   -3.5429 C.2         1 ZZL       0.0552
     12 O03         6.4036   -8.4115   -4.6767 O.co2       1 ZZL      -0.5638
     13 C04         6.1916  -10.3652   -3.2646 C.ar        1 ZZL      -0.0018
     14 C05         5.5763  -11.0131   -2.1651 C.ar        1 ZZL      -0.0573
     15 C06         5.7718  -12.3845   -1.9269 C.ar        1 ZZL      -0.0347
     16 C07         6.5831  -13.1542   -2.7928 C.ar        1 ZZL       0.0671
     17 N08         6.7736  -14.4986   -2.6243 N.pl3       1 ZZL      -0.2432
     18 C09         5.7899  -15.4333   -2.5937 C.ar        1 ZZL       0.2053
     19 N10         4.4823  -15.1260   -2.7719 N.ar        1 ZZL      -0.2577
     20 C11         3.5197  -16.0688   -2.7986 C.ar        1 ZZL       0.0185
     21 C12         3.8476  -17.4301   -2.6410 C.ar        1 ZZL       0.0154
     22 N14         3.0606  -19.3996   -3.6505 N.2         1 ZZL      -0.3323
     23 C16         4.0322  -20.9919   -4.9981 C.ar        1 ZZL       0.0838
     24 F18         6.4142  -20.9221   -5.2356 F           1 ZZL      -0.1759
     25 C19         5.2394  -22.1521   -6.8054 C.ar        1 ZZL      -0.0237
     26 F23         1.6427  -21.1601   -5.0741 F           1 ZZL      -0.1759
     27 C25         5.5672  -21.5504   -2.4898 C.ar        1 ZZL      -0.0267
     28 CL1         7.1043  -23.2446   -1.0690 Cl          1 ZZL      -0.0667
     29 C29         6.7485  -19.2946   -1.3418 C.ar        1 ZZL      -0.0425
     30 C30         5.6748  -19.1068   -2.2472 C.ar        1 ZZL       0.0182
     31 C31         5.2170  -17.7625   -2.4554 C.ar        1 ZZL       0.0633
     32 N32         6.1258  -16.7404   -2.4460 N.ar        1 ZZL      -0.2522
     33 C33         7.2272  -12.5130   -3.8724 C.ar        1 ZZL      -0.0347
     34 C34         7.0278  -11.1402   -4.1074 C.ar        1 ZZL      -0.0573
     35 H1          1.8166  -18.0472   -2.8877 H           1 ZZL       0.0550
     36 H2          2.7359  -18.9603   -1.6878 H           1 ZZL       0.0550
     37 H3          4.0348  -23.1305   -8.2298 H           1 ZZL       0.0651
     38 H4          1.9351  -22.4901   -7.2104 H           1 ZZL       0.0588
     39 H5          7.9805  -20.6692   -0.3291 H           1 ZZL       0.0679
     40 H6          4.9648  -10.4948   -1.5287 H           1 ZZL       0.0621
     41 H7          5.3214  -12.8229   -1.1213 H           1 ZZL       0.0543
     42 H8          7.6837  -14.8236   -2.6617 H           1 ZZL       0.2170
     43 H9          2.5563  -15.7683   -2.9492 H           1 ZZL       0.0835
     44 H10         6.1222  -22.4202   -7.2439 H           1 ZZL       0.0588
     45 H11         5.1405  -22.3961   -2.8878 H           1 ZZL       0.0697
     46 H12         7.1796  -18.4975   -0.8715 H           1 ZZL       0.0662
     47 H13         7.8141  -13.0502   -4.5128 H           1 ZZL       0.0543
     48 H14         7.4812  -10.7193   -4.9203 H           1 ZZL       0.0621
@<TRIPOS>BOND
     1    21     1   1
     2     1    22   1
     3     2     7   1
     4    22     2   2
     5     2    23   1
     6    23     3  ar
     7     3    24   1
     8     3    25  ar
     9     5     4  ar
    10    25     4  ar
    11     6     5  ar
    12    23     6  ar
    13     6    26   1
    14     7    27  ar
    15     7    30  ar
    16     8     9  ar
    17    27     8  ar
    18     8    28   1
    19     9    29  ar
    20    11    10  ar
    21    11    12  ar
    22    13    11   1
    23    14    13  ar
    24    13    34  ar
    25    15    14  ar
    26    16    15  ar
    27    17    16   1
    28    16    33  ar
    29    18    17   1
    30    19    18  ar
    31    18    32  ar
    32    20    19  ar
    33    20    21  ar
    34    21    31  ar
    35    29    30  ar
    36    30    31   1
    37    31    32  ar
    38    33    34  ar
    39     1    35   1
    40     1    36   1
    41     4    37   1
    42     5    38   1
    43     9    39   1
    44    14    40   1
    45    15    41   1
    46    17    42   1
    47    20    43   1
    48    25    44   1
    49    27    45   1
    50    29    46   1
    51    33    47   1
    52    34    48   1
@<TRIPOS>SUBSTRUCTURE
     1  ZZL      1

