@<TRIPOS>MOLECULE
2wtv_ligand_018
    48    52
SMALL
GAST_HUCK
****
This file was generated by PARSER (from files_GN.cpp)

@<TRIPOS>ATOM
      1 C13        10.2509   -8.0068   -1.4740 C.3         1 ZZL       0.0407
      2 C15        11.0487   -9.4257   -3.2777 C.2         1 ZZL       0.0550
      3 C17        13.3730   -9.0823   -4.0688 C.ar        1 ZZL       0.1522
      4 C20        13.9799   -9.5626   -6.3776 C.ar        1 ZZL      -0.0589
      5 C21        12.6710   -9.9977   -6.6299 C.ar        1 ZZL      -0.0237
      6 C22        11.7051   -9.9615   -5.6057 C.ar        1 ZZL       0.1522
      7 C24        10.0025  -10.3667   -3.1664 C.ar        1 ZZL       0.0251
      8 C26         9.3539  -12.7373   -3.2875 C.ar        1 ZZL       0.0501
      9 C28         8.0026  -12.3700   -3.2432 C.ar        1 ZZL      -0.0388
     10 O01         1.5944  -10.5018   -7.2786 O.co2       1 ZZL      -0.5638
     11 C02         1.2730   -9.5496   -6.3759 C.2         1 ZZL       0.0552
     12 O03        -0.0439   -9.3143   -6.1921 O.co2       1 ZZL      -0.5638
     13 C04         2.2699   -8.8300   -5.6623 C.ar        1 ZZL      -0.0018
     14 C05         3.6367   -9.1593   -5.8159 C.ar        1 ZZL      -0.0573
     15 C06         4.6331   -8.4496   -5.1276 C.ar        1 ZZL      -0.0347
     16 C07         4.2962   -7.4050   -4.2381 C.ar        1 ZZL       0.0671
     17 N08         5.1949   -6.6653   -3.5209 N.pl3       1 ZZL      -0.2432
     18 C09         6.4271   -7.0248   -3.0807 C.ar        1 ZZL       0.2053
     19 N10         7.1411   -6.1122   -2.3842 N.ar        1 ZZL      -0.2577
     20 C11         8.3598   -6.3922   -1.8745 C.ar        1 ZZL       0.0185
     21 C12         8.9273   -7.6775   -2.0473 C.ar        1 ZZL       0.0154
     22 N14        11.1019   -8.4063   -2.4905 N.2         1 ZZL      -0.3323
     23 C16        12.0294   -9.5025   -4.2957 C.ar        1 ZZL       0.0838
     24 F18        13.7833   -8.6663   -2.8947 F           1 ZZL      -0.1759
     25 C19        14.3305   -9.1107   -5.1011 C.ar        1 ZZL      -0.0237
     26 F23        10.4944  -10.3410   -5.9422 F           1 ZZL      -0.1759
     27 C25        10.3401  -11.7435   -3.2592 C.ar        1 ZZL      -0.0267
     28 CL1         9.7935  -14.3714   -3.4083 Cl          1 ZZL      -0.0667
     29 C29         7.6486  -11.0165   -3.1062 C.ar        1 ZZL      -0.0425
     30 C30         8.6261   -9.9947   -3.0177 C.ar        1 ZZL       0.0182
     31 C31         8.1847   -8.6419   -2.7849 C.ar        1 ZZL       0.0633
     32 N32         6.9653   -8.2587   -3.2518 N.ar        1 ZZL      -0.2522
     33 C33         2.9343   -7.0564   -4.0980 C.ar        1 ZZL      -0.0347
     34 C34         1.9363   -7.7646   -4.7958 C.ar        1 ZZL      -0.0573
     35 H1         10.1424   -8.8023   -0.7288 H           1 ZZL       0.0550
     36 H2         10.7040   -7.1461   -0.9777 H           1 ZZL       0.0550
     37 H3         14.6769   -9.5745   -7.1270 H           1 ZZL       0.0651
     38 H4         12.4233  -10.3325   -7.5656 H           1 ZZL       0.0588
     39 H5          7.2703  -13.0842   -3.2968 H           1 ZZL       0.0679
     40 H6          3.9277   -9.9186   -6.4378 H           1 ZZL       0.0621
     41 H7          5.6088   -8.6936   -5.3078 H           1 ZZL       0.0543
     42 H8          4.8909   -5.7924   -3.2273 H           1 ZZL       0.2170
     43 H9          8.8522   -5.6648   -1.3532 H           1 ZZL       0.0835
     44 H10        15.2885   -8.7960   -4.9229 H           1 ZZL       0.0588
     45 H11        11.3249  -12.0291   -3.3233 H           1 ZZL       0.0697
     46 H12         6.6508  -10.7978   -3.0410 H           1 ZZL       0.0662
     47 H13         2.6596   -6.2955   -3.4744 H           1 ZZL       0.0543
     48 H14         0.9621   -7.4825   -4.6584 H           1 ZZL       0.0621
@<TRIPOS>BOND
     1    21     1   1
     2     1    22   1
     3     2     7   1
     4    22     2   2
     5     2    23   1
     6    23     3  ar
     7     3    24   1
     8     3    25  ar
     9     5     4  ar
    10    25     4  ar
    11     6     5  ar
    12    23     6  ar
    13     6    26   1
    14     7    27  ar
    15     7    30  ar
    16     8     9  ar
    17    27     8  ar
    18     8    28   1
    19     9    29  ar
    20    11    10  ar
    21    11    12  ar
    22    13    11   1
    23    14    13  ar
    24    13    34  ar
    25    15    14  ar
    26    16    15  ar
    27    17    16   1
    28    16    33  ar
    29    18    17   1
    30    19    18  ar
    31    18    32  ar
    32    20    19  ar
    33    20    21  ar
    34    21    31  ar
    35    29    30  ar
    36    30    31   1
    37    31    32  ar
    38    33    34  ar
    39     1    35   1
    40     1    36   1
    41     4    37   1
    42     5    38   1
    43     9    39   1
    44    14    40   1
    45    15    41   1
    46    17    42   1
    47    20    43   1
    48    25    44   1
    49    27    45   1
    50    29    46   1
    51    33    47   1
    52    34    48   1
@<TRIPOS>SUBSTRUCTURE
     1  ZZL      1

