@<TRIPOS>MOLECULE
2wtv_ligand_009
    48    52
SMALL
GAST_HUCK
****
This file was generated by PARSER (from files_GN.cpp)

@<TRIPOS>ATOM
      1 C13         5.2146   -7.2129   -4.1465 C.3         1 ZZL       0.0407
      2 C15         3.5515   -8.8215   -3.4710 C.2         1 ZZL       0.0550
      3 C17         2.9967  -11.1284   -4.0751 C.ar        1 ZZL       0.1522
      4 C20         3.3264  -12.9091   -2.4403 C.ar        1 ZZL      -0.0589
      5 C21         3.8175  -11.9729   -1.5132 C.ar        1 ZZL      -0.0237
      6 C22         3.8845  -10.6079   -1.8544 C.ar        1 ZZL       0.1522
      7 C24         2.4725   -7.9289   -3.3332 C.ar        1 ZZL       0.0251
      8 C26         0.0707   -7.5018   -3.7195 C.ar        1 ZZL       0.0501
      9 C28         0.2058   -6.2063   -3.1987 C.ar        1 ZZL      -0.0388
     10 O01         8.1849   -0.0163    4.2761 O.co2       1 ZZL      -0.5638
     11 C02         8.5481   -0.7131    3.1635 C.2         1 ZZL       0.0552
     12 O03         9.8193   -0.5301    2.7070 O.co2       1 ZZL      -0.5638
     13 C04         7.6234   -1.4994    2.4419 C.ar        1 ZZL      -0.0018
     14 C05         7.7363   -1.6275    1.0407 C.ar        1 ZZL      -0.0573
     15 C06         6.8006   -2.3828    0.3132 C.ar        1 ZZL      -0.0347
     16 C07         5.7398   -3.0628    0.9599 C.ar        1 ZZL       0.0671
     17 N08         4.7999   -3.8110    0.3200 N.pl3       1 ZZL      -0.2432
     18 C09         4.9405   -4.6058   -0.7705 C.ar        1 ZZL       0.2053
     19 N10         6.1398   -4.8678   -1.3565 N.ar        1 ZZL      -0.2577
     20 C11         6.2509   -5.6943   -2.4289 C.ar        1 ZZL       0.0185
     21 C12         5.1044   -6.3120   -2.9740 C.ar        1 ZZL       0.0154
     22 N14         4.7367   -8.4673   -3.8199 N.2         1 ZZL      -0.3323
     23 C16         3.4606  -10.1685   -3.1372 C.ar        1 ZZL       0.0838
     24 F18         2.6473  -10.7800   -5.2872 F           1 ZZL      -0.1759
     25 C19         2.9174  -12.4875   -3.7169 C.ar        1 ZZL      -0.0237
     26 F23         4.3810   -9.7749   -0.9778 F           1 ZZL      -0.1759
     27 C25         1.1883   -8.3620   -3.7600 C.ar        1 ZZL      -0.0267
     28 CL1        -1.4223   -8.0138   -4.3396 Cl          1 ZZL      -0.0667
     29 C29         1.4593   -5.7627   -2.7535 C.ar        1 ZZL      -0.0425
     30 C30         2.6102   -6.5970   -2.8224 C.ar        1 ZZL       0.0182
     31 C31         3.8522   -6.0438   -2.3637 C.ar        1 ZZL       0.0633
     32 N32         3.8358   -5.2051   -1.2890 N.ar        1 ZZL      -0.2522
     33 C33         5.6268   -2.9150    2.3628 C.ar        1 ZZL      -0.0347
     34 C34         6.5531   -2.1479    3.0961 C.ar        1 ZZL      -0.0573
     35 H1          6.2545   -7.3277   -4.4768 H           1 ZZL       0.0550
     36 H2          4.6484   -6.8015   -4.9888 H           1 ZZL       0.0550
     37 H3          3.2890  -13.9021   -2.1928 H           1 ZZL       0.0651
     38 H4          4.1257  -12.2877   -0.5908 H           1 ZZL       0.0588
     39 H5         -0.6053   -5.5812   -3.1565 H           1 ZZL       0.0679
     40 H6          8.4792   -1.1425    0.5277 H           1 ZZL       0.0621
     41 H7          6.8723   -2.3765   -0.7078 H           1 ZZL       0.0543
     42 H8          3.9193   -3.8149    0.7251 H           1 ZZL       0.2170
     43 H9          7.1747   -5.8478   -2.8365 H           1 ZZL       0.0835
     44 H10         2.5700  -13.1797   -4.3871 H           1 ZZL       0.0588
     45 H11         1.0710   -9.3088   -4.1523 H           1 ZZL       0.0697
     46 H12         1.5216   -4.8070   -2.3997 H           1 ZZL       0.0662
     47 H13         4.8539   -3.3785    2.8624 H           1 ZZL       0.0543
     48 H14         6.4344   -2.0762    4.1118 H           1 ZZL       0.0621
@<TRIPOS>BOND
     1    21     1   1
     2     1    22   1
     3     2     7   1
     4    22     2   2
     5     2    23   1
     6    23     3  ar
     7     3    24   1
     8     3    25  ar
     9     5     4  ar
    10    25     4  ar
    11     6     5  ar
    12    23     6  ar
    13     6    26   1
    14     7    27  ar
    15     7    30  ar
    16     8     9  ar
    17    27     8  ar
    18     8    28   1
    19     9    29  ar
    20    11    10  ar
    21    11    12  ar
    22    13    11   1
    23    14    13  ar
    24    13    34  ar
    25    15    14  ar
    26    16    15  ar
    27    17    16   1
    28    16    33  ar
    29    18    17   1
    30    19    18  ar
    31    18    32  ar
    32    20    19  ar
    33    20    21  ar
    34    21    31  ar
    35    29    30  ar
    36    30    31   1
    37    31    32  ar
    38    33    34  ar
    39     1    35   1
    40     1    36   1
    41     4    37   1
    42     5    38   1
    43     9    39   1
    44    14    40   1
    45    15    41   1
    46    17    42   1
    47    20    43   1
    48    25    44   1
    49    27    45   1
    50    29    46   1
    51    33    47   1
    52    34    48   1
@<TRIPOS>SUBSTRUCTURE
     1  ZZL      1

