@<TRIPOS>MOLECULE
2wtv_ligand_090
    48    52
SMALL
GAST_HUCK
****
This file was generated by PARSER (from files_GN.cpp)

@<TRIPOS>ATOM
      1 C13         3.3434   -9.8326   -1.5895 C.3         1 ZZL       0.0407
      2 C15         3.5691   -9.6703   -3.9955 C.2         1 ZZL       0.0550
      3 C17         5.1680   -9.4806   -5.8345 C.ar        1 ZZL       0.1522
      4 C20         5.6335   -7.3008   -6.8182 C.ar        1 ZZL      -0.0589
      5 C21         4.6725   -6.7140   -5.9777 C.ar        1 ZZL      -0.0237
      6 C22         3.9595   -7.5021   -5.0602 C.ar        1 ZZL       0.1522
      7 C24         2.8404  -10.8382   -4.3038 C.ar        1 ZZL       0.0251
      8 C26         1.0794  -11.8721   -5.6762 C.ar        1 ZZL       0.0501
      9 C28         1.2017  -13.0633   -4.9470 C.ar        1 ZZL      -0.0388
     10 O01         6.0749  -20.5964   -3.6157 O.co2       1 ZZL      -0.5638
     11 C02         6.0409  -19.3757   -4.1942 C.2         1 ZZL       0.0552
     12 O03         5.8744  -19.3430   -5.5366 O.co2       1 ZZL      -0.5638
     13 C04         6.1330  -18.1903   -3.4285 C.ar        1 ZZL      -0.0018
     14 C05         6.4208  -18.2106   -2.0455 C.ar        1 ZZL      -0.0573
     15 C06         6.4514  -17.0116   -1.3047 C.ar        1 ZZL      -0.0347
     16 C07         6.1736  -15.7722   -1.9164 C.ar        1 ZZL       0.0671
     17 N08         6.1454  -14.6734   -1.1023 N.pl3       1 ZZL      -0.2432
     18 C09         5.4152  -13.5450   -1.2470 C.ar        1 ZZL       0.2053
     19 N10         5.5539  -12.5823   -0.3040 N.ar        1 ZZL      -0.2577
     20 C11         4.8821  -11.4089   -0.3700 C.ar        1 ZZL       0.0185
     21 C12         4.0008  -11.1540   -1.4450 C.ar        1 ZZL       0.0154
     22 N14         3.7497   -9.2660   -2.7852 N.2         1 ZZL      -0.3323
     23 C16         4.2016   -8.8999   -4.9691 C.ar        1 ZZL       0.0838
     24 F18         5.4703  -10.7541   -5.7797 F           1 ZZL      -0.1759
     25 C19         5.8814   -8.6802   -6.7443 C.ar        1 ZZL      -0.0237
     26 F23         3.0575   -6.9087   -4.3182 F           1 ZZL      -0.1759
     27 C25         1.9087  -10.7788   -5.3716 C.ar        1 ZZL      -0.0267
     28 CL1        -0.1150  -11.7378   -6.8700 Cl          1 ZZL      -0.0667
     29 C29         2.1425  -13.1515   -3.9052 C.ar        1 ZZL      -0.0425
     30 C30         2.9519  -12.0458   -3.5423 C.ar        1 ZZL       0.0182
     31 C31         3.8217  -12.1788   -2.4124 C.ar        1 ZZL       0.0633
     32 N32         4.5373  -13.3270   -2.2661 N.ar        1 ZZL      -0.2522
     33 C33         5.9573  -15.7468   -3.3139 C.ar        1 ZZL      -0.0347
     34 C34         5.9236  -16.9399   -4.0533 C.ar        1 ZZL      -0.0573
     35 H1          3.6219   -9.1458   -0.7865 H           1 ZZL       0.0550
     36 H2          2.2577   -9.9427   -1.5766 H           1 ZZL       0.0550
     37 H3          6.1334   -6.7250   -7.4973 H           1 ZZL       0.0651
     38 H4          4.4806   -5.7123   -6.0566 H           1 ZZL       0.0588
     39 H5          0.5747  -13.8486   -5.1416 H           1 ZZL       0.0679
     40 H6          6.6017  -19.0914   -1.5530 H           1 ZZL       0.0621
     41 H7          6.6565  -17.0510   -0.3044 H           1 ZZL       0.0543
     42 H8          6.6426  -14.7462   -0.2704 H           1 ZZL       0.2170
     43 H9          5.0416  -10.7066    0.3522 H           1 ZZL       0.0835
     44 H10         6.5877   -9.0986   -7.3556 H           1 ZZL       0.0588
     45 H11         1.7824   -9.9120   -5.9035 H           1 ZZL       0.0697
     46 H12         2.1868  -14.0269   -3.3748 H           1 ZZL       0.0662
     47 H13         5.8274  -14.8681   -3.8179 H           1 ZZL       0.0543
     48 H14         5.7340  -16.8820   -5.0533 H           1 ZZL       0.0621
@<TRIPOS>BOND
     1    21     1   1
     2     1    22   1
     3     2     7   1
     4    22     2   2
     5     2    23   1
     6    23     3  ar
     7     3    24   1
     8     3    25  ar
     9     5     4  ar
    10    25     4  ar
    11     6     5  ar
    12    23     6  ar
    13     6    26   1
    14     7    27  ar
    15     7    30  ar
    16     8     9  ar
    17    27     8  ar
    18     8    28   1
    19     9    29  ar
    20    11    10  ar
    21    11    12  ar
    22    13    11   1
    23    14    13  ar
    24    13    34  ar
    25    15    14  ar
    26    16    15  ar
    27    17    16   1
    28    16    33  ar
    29    18    17   1
    30    19    18  ar
    31    18    32  ar
    32    20    19  ar
    33    20    21  ar
    34    21    31  ar
    35    29    30  ar
    36    30    31   1
    37    31    32  ar
    38    33    34  ar
    39     1    35   1
    40     1    36   1
    41     4    37   1
    42     5    38   1
    43     9    39   1
    44    14    40   1
    45    15    41   1
    46    17    42   1
    47    20    43   1
    48    25    44   1
    49    27    45   1
    50    29    46   1
    51    33    47   1
    52    34    48   1
@<TRIPOS>SUBSTRUCTURE
     1  ZZL      1

