@<TRIPOS>MOLECULE
2wtv_ligand_011
    48    52
SMALL
GAST_HUCK
****
This file was generated by PARSER (from files_GN.cpp)

@<TRIPOS>ATOM
      1 C13         2.1054   -5.6655   -3.9904 C.3         1 ZZL       0.0407
      2 C15         4.0077   -6.7384   -2.9243 C.2         1 ZZL       0.0550
      3 C17         4.3893   -7.6790   -0.6900 C.ar        1 ZZL       0.1522
      4 C20         6.2384   -6.8588    0.6764 C.ar        1 ZZL      -0.0589
      5 C21         6.5349   -5.8944   -0.2990 C.ar        1 ZZL      -0.0237
      6 C22         5.7763   -5.8298   -1.4841 C.ar        1 ZZL       0.1522
      7 C24         4.3482   -7.6050   -3.9873 C.ar        1 ZZL       0.0251
      8 C26         6.1352   -8.8292   -5.1700 C.ar        1 ZZL       0.0501
      9 C28         5.1789   -9.4726   -5.9655 C.ar        1 ZZL      -0.0388
     10 O01         1.5125  -15.8799   -7.1041 O.co2       1 ZZL      -0.5638
     11 C02         1.6221  -15.1930   -5.9432 C.2         1 ZZL       0.0552
     12 O03         2.3871  -15.7483   -4.9759 O.co2       1 ZZL      -0.5638
     13 C04         0.9338  -13.9717   -5.7271 C.ar        1 ZZL      -0.0018
     14 C05         0.6781  -13.5117   -4.4119 C.ar        1 ZZL      -0.0573
     15 C06         0.0278  -12.2875   -4.1887 C.ar        1 ZZL      -0.0347
     16 C07        -0.3846  -11.4936   -5.2774 C.ar        1 ZZL       0.0671
     17 N08        -0.9325  -10.2692   -5.0537 N.pl3       1 ZZL      -0.2432
     18 C09        -0.1945   -9.1651   -4.7971 C.ar        1 ZZL       0.2053
     19 N10        -0.8065   -8.0002   -4.4798 N.ar        1 ZZL      -0.2577
     20 C11        -0.0955   -6.8774   -4.2122 C.ar        1 ZZL       0.0185
     21 C12         1.3174   -6.8844   -4.2805 C.ar        1 ZZL       0.0154
     22 N14         3.0178   -5.9160   -2.9757 N.2         1 ZZL      -0.3323
     23 C16         4.7094   -6.7437   -1.7133 C.ar        1 ZZL       0.0838
     24 F18         3.3933   -8.5263   -0.7960 F           1 ZZL      -0.1759
     25 C19         5.1482   -7.7243    0.4957 C.ar        1 ZZL      -0.0237
     26 F23         6.1219   -4.9349   -2.3749 F           1 ZZL      -0.1759
     27 C25         5.7248   -7.8732   -4.2269 C.ar        1 ZZL      -0.0267
     28 CL1         7.7666   -9.2595   -5.2995 Cl          1 ZZL      -0.0667
     29 C29         3.8193   -9.1803   -5.7927 C.ar        1 ZZL      -0.0425
     30 C30         3.3710   -8.2663   -4.8008 C.ar        1 ZZL       0.0182
     31 C31         1.9548   -8.0992   -4.6465 C.ar        1 ZZL       0.0633
     32 N32         1.1610   -9.1784   -4.8718 N.ar        1 ZZL      -0.2522
     33 C33        -0.1979  -11.9670   -6.5913 C.ar        1 ZZL      -0.0347
     34 C34         0.4739  -13.1841   -6.8116 C.ar        1 ZZL      -0.0573
     35 H1          1.4691   -4.8433   -3.6560 H           1 ZZL       0.0550
     36 H2          2.6245   -5.3438   -4.8962 H           1 ZZL       0.0550
     37 H3          6.7996   -6.9188    1.5277 H           1 ZZL       0.0651
     38 H4          7.3011   -5.2357   -0.1369 H           1 ZZL       0.0588
     39 H5          5.4645  -10.1629   -6.6645 H           1 ZZL       0.0679
     40 H6          0.9708  -14.0546   -3.5966 H           1 ZZL       0.0621
     41 H7         -0.1160  -11.9624   -3.2296 H           1 ZZL       0.0543
     42 H8         -1.8991  -10.1825   -5.0822 H           1 ZZL       0.2170
     43 H9         -0.6052   -6.0276   -3.9663 H           1 ZZL       0.0835
     44 H10         4.9145   -8.3946    1.2300 H           1 ZZL       0.0588
     45 H11         6.4497   -7.3961   -3.6810 H           1 ZZL       0.0697
     46 H12         3.1538   -9.6684   -6.3975 H           1 ZZL       0.0662
     47 H13        -0.4860  -11.4017   -7.3904 H           1 ZZL       0.0543
     48 H14         0.6395  -13.4788   -7.7769 H           1 ZZL       0.0621
@<TRIPOS>BOND
     1    21     1   1
     2     1    22   1
     3     2     7   1
     4    22     2   2
     5     2    23   1
     6    23     3  ar
     7     3    24   1
     8     3    25  ar
     9     5     4  ar
    10    25     4  ar
    11     6     5  ar
    12    23     6  ar
    13     6    26   1
    14     7    27  ar
    15     7    30  ar
    16     8     9  ar
    17    27     8  ar
    18     8    28   1
    19     9    29  ar
    20    11    10  ar
    21    11    12  ar
    22    13    11   1
    23    14    13  ar
    24    13    34  ar
    25    15    14  ar
    26    16    15  ar
    27    17    16   1
    28    16    33  ar
    29    18    17   1
    30    19    18  ar
    31    18    32  ar
    32    20    19  ar
    33    20    21  ar
    34    21    31  ar
    35    29    30  ar
    36    30    31   1
    37    31    32  ar
    38    33    34  ar
    39     1    35   1
    40     1    36   1
    41     4    37   1
    42     5    38   1
    43     9    39   1
    44    14    40   1
    45    15    41   1
    46    17    42   1
    47    20    43   1
    48    25    44   1
    49    27    45   1
    50    29    46   1
    51    33    47   1
    52    34    48   1
@<TRIPOS>SUBSTRUCTURE
     1  ZZL      1

