@<TRIPOS>MOLECULE
2wtv_ligand_048
    48    52
SMALL
GAST_HUCK
****
This file was generated by PARSER (from files_GN.cpp)

@<TRIPOS>ATOM
      1 C13         5.0471   -8.3918   -5.6207 C.3         1 ZZL       0.0407
      2 C15         3.0187   -7.9794   -4.3281 C.2         1 ZZL       0.0550
      3 C17         0.8919   -6.7659   -4.4408 C.ar        1 ZZL       0.1522
      4 C20        -1.1795   -8.0105   -4.7586 C.ar        1 ZZL      -0.0589
      5 C21        -0.4466   -9.1956   -4.9358 C.ar        1 ZZL      -0.0237
      6 C22         0.9557   -9.1825   -4.8058 C.ar        1 ZZL       0.1522
      7 C24         3.5949   -7.9413   -3.0312 C.ar        1 ZZL       0.0251
      8 C26         3.5782   -7.0226   -0.7341 C.ar        1 ZZL       0.0501
      9 C28         4.7387   -7.7428   -0.4184 C.ar        1 ZZL      -0.0388
     10 O01         5.4133  -12.8588    3.4096 O.co2       1 ZZL      -0.5638
     11 C02         5.6332  -13.9473    2.6380 C.2         1 ZZL       0.0552
     12 O03         5.9864  -15.0827    3.2774 O.co2       1 ZZL      -0.5638
     13 C04         5.7049  -13.8313    1.2308 C.ar        1 ZZL      -0.0018
     14 C05         6.5969  -14.6145    0.4597 C.ar        1 ZZL      -0.0573
     15 C06         6.7267  -14.4080   -0.9291 C.ar        1 ZZL      -0.0347
     16 C07         5.9457  -13.4339   -1.5863 C.ar        1 ZZL       0.0671
     17 N08         6.1826  -13.1939   -2.9199 N.pl3       1 ZZL      -0.2432
     18 C09         5.9895  -12.0212   -3.5744 C.ar        1 ZZL       0.2053
     19 N10         6.1848  -11.9239   -4.9130 N.ar        1 ZZL      -0.2577
     20 C11         5.9389  -10.7690   -5.5905 C.ar        1 ZZL       0.0185
     21 C12         5.4523   -9.6261   -4.9131 C.ar        1 ZZL       0.0154
     22 N14         3.6873   -8.1804   -5.4109 N.2         1 ZZL      -0.3323
     23 C16         1.6371   -7.9686   -4.5181 C.ar        1 ZZL       0.0838
     24 F18         1.4831   -5.6156   -4.2511 F           1 ZZL      -0.1759
     25 C19        -0.5137   -6.7944   -4.5352 C.ar        1 ZZL      -0.0237
     26 F23         1.5993  -10.3156   -4.9407 F           1 ZZL      -0.1759
     27 C25         3.0165   -7.1242   -2.0211 C.ar        1 ZZL      -0.0267
     28 CL1         2.8757   -6.0361    0.4481 Cl          1 ZZL      -0.0667
     29 C29         5.3080   -8.5843   -1.3774 C.ar        1 ZZL      -0.0425
     30 C30         4.7448   -8.7172   -2.6725 C.ar        1 ZZL       0.0182
     31 C31         5.2937   -9.7217   -3.5120 C.ar        1 ZZL       0.0633
     32 N32         5.5695  -10.9064   -2.9284 N.ar        1 ZZL      -0.2522
     33 C33         4.9572  -12.7545   -0.8307 C.ar        1 ZZL      -0.0347
     34 C34         4.8662  -12.9179    0.5598 C.ar        1 ZZL      -0.0573
     35 H1          5.2072   -8.4823   -6.6955 H           1 ZZL       0.0550
     36 H2          5.6303   -7.5361   -5.2664 H           1 ZZL       0.0550
     37 H3         -2.2013   -8.0349   -4.7992 H           1 ZZL       0.0651
     38 H4         -0.9368  -10.0683   -5.1418 H           1 ZZL       0.0588
     39 H5          5.1634   -7.6715    0.5090 H           1 ZZL       0.0679
     40 H6          7.1942  -15.3140    0.9034 H           1 ZZL       0.0621
     41 H7          7.4237  -14.9456   -1.4537 H           1 ZZL       0.0543
     42 H8          6.5864  -13.9111   -3.4336 H           1 ZZL       0.2170
     43 H9          6.0736  -10.7544   -6.6028 H           1 ZZL       0.0835
     44 H10        -1.0558   -5.9361   -4.4402 H           1 ZZL       0.0588
     45 H11         2.1843   -6.5651   -2.2099 H           1 ZZL       0.0697
     46 H12         6.1427   -9.1181   -1.1185 H           1 ZZL       0.0662
     47 H13         4.2925  -12.1232   -1.2781 H           1 ZZL       0.0543
     48 H14         4.1665  -12.3750    1.0674 H           1 ZZL       0.0621
@<TRIPOS>BOND
     1    21     1   1
     2     1    22   1
     3     2     7   1
     4    22     2   2
     5     2    23   1
     6    23     3  ar
     7     3    24   1
     8     3    25  ar
     9     5     4  ar
    10    25     4  ar
    11     6     5  ar
    12    23     6  ar
    13     6    26   1
    14     7    27  ar
    15     7    30  ar
    16     8     9  ar
    17    27     8  ar
    18     8    28   1
    19     9    29  ar
    20    11    10  ar
    21    11    12  ar
    22    13    11   1
    23    14    13  ar
    24    13    34  ar
    25    15    14  ar
    26    16    15  ar
    27    17    16   1
    28    16    33  ar
    29    18    17   1
    30    19    18  ar
    31    18    32  ar
    32    20    19  ar
    33    20    21  ar
    34    21    31  ar
    35    29    30  ar
    36    30    31   1
    37    31    32  ar
    38    33    34  ar
    39     1    35   1
    40     1    36   1
    41     4    37   1
    42     5    38   1
    43     9    39   1
    44    14    40   1
    45    15    41   1
    46    17    42   1
    47    20    43   1
    48    25    44   1
    49    27    45   1
    50    29    46   1
    51    33    47   1
    52    34    48   1
@<TRIPOS>SUBSTRUCTURE
     1  ZZL      1

