@<TRIPOS>MOLECULE
2wtv_ligand_024
    48    52
SMALL
GAST_HUCK
****
This file was generated by PARSER (from files_GN.cpp)

@<TRIPOS>ATOM
      1 C13         9.4202   -4.5863   -2.3651 C.3         1 ZZL       0.0407
      2 C15         7.5279   -5.9606   -1.6940 C.2         1 ZZL       0.0550
      3 C17         5.7046   -7.1161   -0.4947 C.ar        1 ZZL       0.1522
      4 C20         3.9889   -5.8724    0.7048 C.ar        1 ZZL      -0.0589
      5 C21         4.6209   -4.6705    0.3385 C.ar        1 ZZL      -0.0237
      6 C22         5.7860   -4.6890   -0.4519 C.ar        1 ZZL       0.1522
      7 C24         7.8530   -7.0538   -2.5274 C.ar        1 ZZL       0.0251
      8 C26         6.9779   -8.8260   -4.0090 C.ar        1 ZZL       0.0501
      9 C28         8.2669   -9.3586   -4.1460 C.ar        1 ZZL      -0.0388
     10 O01        14.2428  -14.4537   -1.0487 O.co2       1 ZZL      -0.5638
     11 C02        13.9212  -13.6040   -2.0528 C.2         1 ZZL       0.0552
     12 O03        13.6215  -14.1782   -3.2403 O.co2       1 ZZL      -0.5638
     13 C04        13.9099  -12.1971   -1.8717 C.ar        1 ZZL      -0.0018
     14 C05        14.1689  -11.6156   -0.6084 C.ar        1 ZZL      -0.0573
     15 C06        14.1314  -10.2220   -0.4282 C.ar        1 ZZL      -0.0347
     16 C07        13.7993   -9.3681   -1.5025 C.ar        1 ZZL       0.0671
     17 N08        13.7364   -8.0242   -1.2831 N.pl3       1 ZZL      -0.2432
     18 C09        12.6692   -7.2262   -1.5464 C.ar        1 ZZL       0.2053
     19 N10        12.7800   -5.8988   -1.3073 N.ar        1 ZZL      -0.2577
     20 C11        11.7488   -5.0475   -1.5387 C.ar        1 ZZL       0.0185
     21 C12        10.5161   -5.5296   -2.0280 C.ar        1 ZZL       0.0154
     22 N14         8.2729   -4.9061   -1.6574 N.2         1 ZZL      -0.3323
     23 C16         6.3681   -5.9178   -0.8888 C.ar        1 ZZL       0.0838
     24 F18         6.1498   -8.2918   -0.8333 F           1 ZZL      -0.1759
     25 C19         4.5410   -7.0979    0.2888 C.ar        1 ZZL      -0.0237
     26 F23         6.2647   -3.5253   -0.8084 F           1 ZZL      -0.1759
     27 C25         6.7782   -7.6940   -3.2043 C.ar        1 ZZL      -0.0267
     28 CL1         5.6772   -9.5311   -4.8334 Cl          1 ZZL      -0.0667
     29 C29         9.3505   -8.7312   -3.5175 C.ar        1 ZZL      -0.0425
     30 C30         9.1841   -7.5585   -2.7260 C.ar        1 ZZL       0.0182
     31 C31        10.3771   -6.9320   -2.2241 C.ar        1 ZZL       0.0633
     32 N32        11.4784   -7.7026   -1.9819 N.ar        1 ZZL      -0.2522
     33 C33        13.5664   -9.9385   -2.7740 C.ar        1 ZZL      -0.0347
     34 C34        13.6263  -11.3302   -2.9582 C.ar        1 ZZL      -0.0573
     35 H1          9.2083   -4.6275   -3.4378 H           1 ZZL       0.0550
     36 H2          9.6830   -3.5523   -2.1202 H           1 ZZL       0.0550
     37 H3          3.1328   -5.8621    1.2615 H           1 ZZL       0.0651
     38 H4          4.2091   -3.7801    0.6375 H           1 ZZL       0.0588
     39 H5          8.4301  -10.1755   -4.7425 H           1 ZZL       0.0679
     40 H6         14.3858  -12.2078    0.2000 H           1 ZZL       0.0621
     41 H7         14.3148   -9.8330    0.5005 H           1 ZZL       0.0543
     42 H8         14.4736   -7.6190   -0.7976 H           1 ZZL       0.2170
     43 H9         11.8936   -4.0504   -1.3625 H           1 ZZL       0.0835
     44 H10         4.0951   -7.9790    0.5662 H           1 ZZL       0.0588
     45 H11         5.8312   -7.3339   -3.1263 H           1 ZZL       0.0697
     46 H12        10.2806   -9.1233   -3.6896 H           1 ZZL       0.0662
     47 H13        13.3580   -9.3347   -3.5736 H           1 ZZL       0.0543
     48 H14        13.4465  -11.7017   -3.8942 H           1 ZZL       0.0621
@<TRIPOS>BOND
     1    21     1   1
     2     1    22   1
     3     2     7   1
     4    22     2   2
     5     2    23   1
     6    23     3  ar
     7     3    24   1
     8     3    25  ar
     9     5     4  ar
    10    25     4  ar
    11     6     5  ar
    12    23     6  ar
    13     6    26   1
    14     7    27  ar
    15     7    30  ar
    16     8     9  ar
    17    27     8  ar
    18     8    28   1
    19     9    29  ar
    20    11    10  ar
    21    11    12  ar
    22    13    11   1
    23    14    13  ar
    24    13    34  ar
    25    15    14  ar
    26    16    15  ar
    27    17    16   1
    28    16    33  ar
    29    18    17   1
    30    19    18  ar
    31    18    32  ar
    32    20    19  ar
    33    20    21  ar
    34    21    31  ar
    35    29    30  ar
    36    30    31   1
    37    31    32  ar
    38    33    34  ar
    39     1    35   1
    40     1    36   1
    41     4    37   1
    42     5    38   1
    43     9    39   1
    44    14    40   1
    45    15    41   1
    46    17    42   1
    47    20    43   1
    48    25    44   1
    49    27    45   1
    50    29    46   1
    51    33    47   1
    52    34    48   1
@<TRIPOS>SUBSTRUCTURE
     1  ZZL      1

