@<TRIPOS>MOLECULE
2wtv_ligand_010
    48    52
SMALL
GAST_HUCK
****
This file was generated by PARSER (from files_GN.cpp)

@<TRIPOS>ATOM
      1 C13         2.8447   -9.2392   -5.7981 C.3         1 ZZL       0.0407
      2 C15         3.0937  -11.3184   -4.5359 C.2         1 ZZL       0.0550
      3 C17         1.6345  -13.1843   -5.2397 C.ar        1 ZZL       0.1522
      4 C20         0.8684  -14.8377   -3.6165 C.ar        1 ZZL      -0.0589
      5 C21         1.5776  -14.1674   -2.6062 C.ar        1 ZZL      -0.0237
      6 C22         2.3098  -12.9982   -2.9046 C.ar        1 ZZL       0.1522
      7 C24         4.4415  -11.1243   -4.1414 C.ar        1 ZZL       0.0251
      8 C26         6.6269  -12.1767   -3.6398 C.ar        1 ZZL       0.0501
      9 C28         7.1774  -10.9243   -3.3466 C.ar        1 ZZL      -0.0388
     10 O01         9.6571   -6.4436    1.6051 O.co2       1 ZZL      -0.5638
     11 C02         8.4692   -5.8835    1.9305 C.2         1 ZZL       0.0552
     12 O03         8.1511   -5.7920    3.2410 O.co2       1 ZZL      -0.5638
     13 C04         7.4479   -5.8146    0.9672 C.ar        1 ZZL      -0.0018
     14 C05         7.3553   -4.6860    0.1245 C.ar        1 ZZL      -0.0573
     15 C06         6.3190   -4.5867   -0.8222 C.ar        1 ZZL      -0.0347
     16 C07         5.3927   -5.6364   -0.9886 C.ar        1 ZZL       0.0671
     17 N08         4.4268   -5.4996   -1.9384 N.pl3       1 ZZL      -0.2432
     18 C09         4.0276   -6.4471   -2.8124 C.ar        1 ZZL       0.2053
     19 N10         3.0248   -6.1492   -3.6714 N.ar        1 ZZL      -0.2577
     20 C11         2.6046   -7.0356   -4.6048 C.ar        1 ZZL       0.0185
     21 C12         3.2316   -8.2969   -4.7322 C.ar        1 ZZL       0.0154
     22 N14         2.4568  -10.4511   -5.2460 N.2         1 ZZL      -0.3323
     23 C16         2.3531  -12.4796   -4.2300 C.ar        1 ZZL       0.0838
     24 F18         1.6403  -12.8011   -6.4888 F           1 ZZL      -0.1759
     25 C19         0.9026  -14.3484   -4.9312 C.ar        1 ZZL      -0.0237
     26 F23         2.9078  -12.3963   -1.9107 F           1 ZZL      -0.1759
     27 C25         5.2860  -12.2656   -4.0518 C.ar        1 ZZL      -0.0267
     28 CL1         7.5784  -13.5692   -3.4927 Cl          1 ZZL      -0.0667
     29 C29         6.3822   -9.7736   -3.4509 C.ar        1 ZZL      -0.0425
     30 C30         5.0136   -9.8439   -3.8289 C.ar        1 ZZL       0.0182
     31 C31         4.2795   -8.6101   -3.8289 C.ar        1 ZZL       0.0633
     32 N32         4.6211   -7.6624   -2.9126 N.ar        1 ZZL      -0.2522
     33 C33         5.4752   -6.7591   -0.1325 C.ar        1 ZZL      -0.0347
     34 C34         6.4882   -6.8442    0.8417 C.ar        1 ZZL      -0.0573
     35 H1          3.6893   -9.3968   -6.4719 H           1 ZZL       0.0550
     36 H2          2.0112   -8.8615   -6.3925 H           1 ZZL       0.0550
     37 H3          0.3261  -15.6768   -3.3985 H           1 ZZL       0.0651
     38 H4          1.5456  -14.5300   -1.6494 H           1 ZZL       0.0588
     39 H5          8.1559  -10.8389   -3.0548 H           1 ZZL       0.0679
     40 H6          8.0247   -3.9189    0.2042 H           1 ZZL       0.0621
     41 H7          6.2608   -3.7573   -1.4148 H           1 ZZL       0.0543
     42 H8          4.0656   -4.6074   -2.0749 H           1 ZZL       0.2170
     43 H9          1.8349   -6.7612   -5.2169 H           1 ZZL       0.0835
     44 H10         0.3938  -14.8460   -5.6658 H           1 ZZL       0.0588
     45 H11         4.9268  -13.1929   -4.2899 H           1 ZZL       0.0697
     46 H12         6.8312   -8.8766   -3.2405 H           1 ZZL       0.0662
     47 H13         4.7881   -7.5177   -0.2018 H           1 ZZL       0.0543
     48 H14         6.5133   -7.6610    1.4577 H           1 ZZL       0.0621
@<TRIPOS>BOND
     1    21     1   1
     2     1    22   1
     3     2     7   1
     4    22     2   2
     5     2    23   1
     6    23     3  ar
     7     3    24   1
     8     3    25  ar
     9     5     4  ar
    10    25     4  ar
    11     6     5  ar
    12    23     6  ar
    13     6    26   1
    14     7    27  ar
    15     7    30  ar
    16     8     9  ar
    17    27     8  ar
    18     8    28   1
    19     9    29  ar
    20    11    10  ar
    21    11    12  ar
    22    13    11   1
    23    14    13  ar
    24    13    34  ar
    25    15    14  ar
    26    16    15  ar
    27    17    16   1
    28    16    33  ar
    29    18    17   1
    30    19    18  ar
    31    18    32  ar
    32    20    19  ar
    33    20    21  ar
    34    21    31  ar
    35    29    30  ar
    36    30    31   1
    37    31    32  ar
    38    33    34  ar
    39     1    35   1
    40     1    36   1
    41     4    37   1
    42     5    38   1
    43     9    39   1
    44    14    40   1
    45    15    41   1
    46    17    42   1
    47    20    43   1
    48    25    44   1
    49    27    45   1
    50    29    46   1
    51    33    47   1
    52    34    48   1
@<TRIPOS>SUBSTRUCTURE
     1  ZZL      1

