@<TRIPOS>MOLECULE
2wtv_ligand_081
    48    52
SMALL
GAST_HUCK
****
This file was generated by PARSER (from files_GN.cpp)

@<TRIPOS>ATOM
      1 C13         5.8158  -12.9444   -1.2780 C.3         1 ZZL       0.0407
      2 C15         7.2840  -14.2492   -2.7386 C.2         1 ZZL       0.0550
      3 C17         8.9620  -14.4821   -4.5404 C.ar        1 ZZL       0.1522
      4 C20        11.3451  -14.2988   -4.0575 C.ar        1 ZZL      -0.0589
      5 C21        11.0459  -14.0600   -2.7077 C.ar        1 ZZL      -0.0237
      6 C22         9.7085  -14.0450   -2.2711 C.ar        1 ZZL       0.1522
      7 C24         6.2884  -15.1592   -3.1757 C.ar        1 ZZL       0.0251
      8 C26         5.7250  -17.4915   -3.7725 C.ar        1 ZZL       0.0501
      9 C28         4.4296  -17.0975   -4.1290 C.ar        1 ZZL      -0.0388
     10 O01        -0.7685   -6.2363   -7.5608 O.co2       1 ZZL      -0.5638
     11 C02        -0.6650   -6.7101   -6.2960 C.2         1 ZZL       0.0552
     12 O03        -1.3259   -6.0098   -5.3466 O.co2       1 ZZL      -0.5638
     13 C04         0.0482   -7.8971   -5.9971 C.ar        1 ZZL      -0.0018
     14 C05         0.7116   -8.6242   -7.0218 C.ar        1 ZZL      -0.0573
     15 C06         1.3956   -9.8119   -6.7346 C.ar        1 ZZL      -0.0347
     16 C07         1.4537  -10.3078   -5.4178 C.ar        1 ZZL       0.0671
     17 N08         2.0938  -11.4885   -5.2138 N.pl3       1 ZZL      -0.2432
     18 C09         2.9534  -11.7800   -4.2161 C.ar        1 ZZL       0.2053
     19 N10         3.3062  -10.9272   -3.2192 N.ar        1 ZZL      -0.2577
     20 C11         4.2065  -11.2801   -2.2688 C.ar        1 ZZL       0.0185
     21 C12         4.8135  -12.5538   -2.2958 C.ar        1 ZZL       0.0154
     22 N14         6.9972  -13.3067   -1.9060 N.2         1 ZZL      -0.3323
     23 C16         8.6300  -14.2748   -3.1716 C.ar        1 ZZL       0.0838
     24 F18         8.0457  -14.6190   -5.4615 F           1 ZZL      -0.1759
     25 C19        10.3022  -14.5080   -4.9720 C.ar        1 ZZL      -0.0237
     26 F23         9.5149  -13.8232   -0.9947 F           1 ZZL      -0.1759
     27 C25         6.6432  -16.5317   -3.3101 C.ar        1 ZZL      -0.0267
     28 CL1         6.1532  -19.1240   -3.8918 Cl          1 ZZL      -0.0667
     29 C29         4.0409  -15.7628   -3.9632 C.ar        1 ZZL      -0.0425
     30 C30         4.9401  -14.7771   -3.4781 C.ar        1 ZZL       0.0182
     31 C31         4.4414  -13.4421   -3.3370 C.ar        1 ZZL       0.0633
     32 N32         3.5301  -13.0002   -4.2521 N.ar        1 ZZL      -0.2522
     33 C33         0.7885   -9.6033   -4.3929 C.ar        1 ZZL      -0.0347
     34 C34         0.0972   -8.4144   -4.6765 C.ar        1 ZZL      -0.0573
     35 H1          5.4411  -13.7791   -0.6809 H           1 ZZL       0.0550
     36 H2          6.0415  -12.1205   -0.5961 H           1 ZZL       0.0550
     37 H3         12.3182  -14.3123   -4.3725 H           1 ZZL       0.0651
     38 H4         11.8107  -13.9020   -2.0457 H           1 ZZL       0.0588
     39 H5          3.7568  -17.7831   -4.4908 H           1 ZZL       0.0679
     40 H6          0.7138   -8.2842   -7.9877 H           1 ZZL       0.0621
     41 H7          1.8784  -10.3100   -7.4879 H           1 ZZL       0.0543
     42 H8          2.0100  -12.1552   -5.9161 H           1 ZZL       0.2170
     43 H9          4.4329  -10.5981   -1.5396 H           1 ZZL       0.0835
     44 H10        10.5263  -14.6673   -5.9584 H           1 ZZL       0.0588
     45 H11         7.5828  -16.8422   -3.0552 H           1 ZZL       0.0697
     46 H12         3.0712  -15.5252   -4.1976 H           1 ZZL       0.0662
     47 H13         0.7882   -9.9673   -3.4362 H           1 ZZL       0.0543
     48 H14        -0.3819   -7.9340   -3.9094 H           1 ZZL       0.0621
@<TRIPOS>BOND
     1    21     1   1
     2     1    22   1
     3     2     7   1
     4    22     2   2
     5     2    23   1
     6    23     3  ar
     7     3    24   1
     8     3    25  ar
     9     5     4  ar
    10    25     4  ar
    11     6     5  ar
    12    23     6  ar
    13     6    26   1
    14     7    27  ar
    15     7    30  ar
    16     8     9  ar
    17    27     8  ar
    18     8    28   1
    19     9    29  ar
    20    11    10  ar
    21    11    12  ar
    22    13    11   1
    23    14    13  ar
    24    13    34  ar
    25    15    14  ar
    26    16    15  ar
    27    17    16   1
    28    16    33  ar
    29    18    17   1
    30    19    18  ar
    31    18    32  ar
    32    20    19  ar
    33    20    21  ar
    34    21    31  ar
    35    29    30  ar
    36    30    31   1
    37    31    32  ar
    38    33    34  ar
    39     1    35   1
    40     1    36   1
    41     4    37   1
    42     5    38   1
    43     9    39   1
    44    14    40   1
    45    15    41   1
    46    17    42   1
    47    20    43   1
    48    25    44   1
    49    27    45   1
    50    29    46   1
    51    33    47   1
    52    34    48   1
@<TRIPOS>SUBSTRUCTURE
     1  ZZL      1

