@<TRIPOS>MOLECULE
2wtv_ligand_001
    48    52
SMALL
GAST_HUCK
****
This file was generated by PARSER (from files_GN.cpp)

@<TRIPOS>ATOM
      1 C13         6.1646   -9.7043   -7.1949 C.3         1 ZZL       0.0407
      2 C15         4.0092   -9.7375   -6.0665 C.2         1 ZZL       0.0550
      3 C17         2.8530  -11.8133   -5.5586 C.ar        1 ZZL       0.1522
      4 C20         0.4990  -12.1033   -6.1418 C.ar        1 ZZL      -0.0589
      5 C21         0.4751  -10.8033   -6.6776 C.ar        1 ZZL      -0.0237
      6 C22         1.6463  -10.0120   -6.6809 C.ar        1 ZZL       0.1522
      7 C24         4.2655   -8.6958   -5.1421 C.ar        1 ZZL       0.0251
      8 C26         3.3901   -6.7429   -3.8893 C.ar        1 ZZL       0.0501
      9 C28         4.6607   -6.5010   -3.3603 C.ar        1 ZZL      -0.0388
     10 O01        14.9953  -13.4325   -2.7198 O.co2       1 ZZL      -0.5638
     11 C02        13.9389  -13.5887   -1.8841 C.2         1 ZZL       0.0552
     12 O03        13.9408  -14.6229   -1.0078 O.co2       1 ZZL      -0.5638
     13 C04        12.7748  -12.8398   -2.0919 C.ar        1 ZZL      -0.0018
     14 C05        12.7234  -11.5003   -1.6571 C.ar        1 ZZL      -0.0573
     15 C06        11.5491  -10.7461   -1.8293 C.ar        1 ZZL      -0.0347
     16 C07        10.4307  -11.3037   -2.4817 C.ar        1 ZZL       0.0671
     17 N08         9.3241  -10.5321   -2.6303 N.pl3       1 ZZL      -0.2432
     18 C09         8.5905  -10.3680   -3.7512 C.ar        1 ZZL       0.2053
     19 N10         8.9054  -10.9496   -4.9368 N.ar        1 ZZL      -0.2577
     20 C11         8.1507  -10.7448   -6.0500 C.ar        1 ZZL       0.0185
     21 C12         7.0077   -9.9157   -6.0013 C.ar        1 ZZL       0.0154
     22 N14         4.8778  -10.1380   -6.9295 N.2         1 ZZL      -0.3323
     23 C16         2.8377  -10.4948   -6.0801 C.ar        1 ZZL       0.0838
     24 F18         3.9354  -12.3305   -5.0467 F           1 ZZL      -0.1759
     25 C19         1.6938  -12.6139   -5.6047 C.ar        1 ZZL      -0.0237
     26 F23         1.6138   -8.8435   -7.2501 F           1 ZZL      -0.1759
     27 C25         3.1987   -7.8306   -4.7651 C.ar        1 ZZL      -0.0267
     28 CL1         2.1065   -5.7122   -3.4773 Cl          1 ZZL      -0.0667
     29 C29         5.7234   -7.3507   -3.6822 C.ar        1 ZZL      -0.0425
     30 C30         5.5535   -8.4560   -4.5567 C.ar        1 ZZL       0.0182
     31 C31         6.6912   -9.3052   -4.7599 C.ar        1 ZZL       0.0633
     32 N32         7.5038   -9.5596   -3.6959 N.ar        1 ZZL      -0.2522
     33 C33        10.4791  -12.6514   -2.9029 C.ar        1 ZZL      -0.0347
     34 C34        11.6420  -13.4180   -2.7035 C.ar        1 ZZL      -0.0573
     35 H1          6.5316  -10.2772   -8.0502 H           1 ZZL       0.0550
     36 H2          6.1654   -8.6476   -7.4746 H           1 ZZL       0.0550
     37 H3         -0.3439  -12.6811   -6.1533 H           1 ZZL       0.0651
     38 H4         -0.4000  -10.4455   -7.0724 H           1 ZZL       0.0588
     39 H5          4.8250   -5.7125   -2.7327 H           1 ZZL       0.0679
     40 H6         13.5259  -11.0705   -1.1896 H           1 ZZL       0.0621
     41 H7         11.5237   -9.7810   -1.4914 H           1 ZZL       0.0543
     42 H8          9.0397  -10.0270   -1.8480 H           1 ZZL       0.2170
     43 H9          8.4347  -11.2039   -6.9150 H           1 ZZL       0.0835
     44 H10         1.7160  -13.5753   -5.2531 H           1 ZZL       0.0588
     45 H11         2.2565   -7.9723   -5.1588 H           1 ZZL       0.0697
     46 H12         6.6318   -7.1461   -3.2642 H           1 ZZL       0.0662
     47 H13         9.6611  -13.0861   -3.3412 H           1 ZZL       0.0543
     48 H14        11.6623  -14.3913   -3.0211 H           1 ZZL       0.0621
@<TRIPOS>BOND
     1    21     1   1
     2     1    22   1
     3     2     7   1
     4    22     2   2
     5     2    23   1
     6    23     3  ar
     7     3    24   1
     8     3    25  ar
     9     5     4  ar
    10    25     4  ar
    11     6     5  ar
    12    23     6  ar
    13     6    26   1
    14     7    27  ar
    15     7    30  ar
    16     8     9  ar
    17    27     8  ar
    18     8    28   1
    19     9    29  ar
    20    11    10  ar
    21    11    12  ar
    22    13    11   1
    23    14    13  ar
    24    13    34  ar
    25    15    14  ar
    26    16    15  ar
    27    17    16   1
    28    16    33  ar
    29    18    17   1
    30    19    18  ar
    31    18    32  ar
    32    20    19  ar
    33    20    21  ar
    34    21    31  ar
    35    29    30  ar
    36    30    31   1
    37    31    32  ar
    38    33    34  ar
    39     1    35   1
    40     1    36   1
    41     4    37   1
    42     5    38   1
    43     9    39   1
    44    14    40   1
    45    15    41   1
    46    17    42   1
    47    20    43   1
    48    25    44   1
    49    27    45   1
    50    29    46   1
    51    33    47   1
    52    34    48   1
@<TRIPOS>SUBSTRUCTURE
     1  ZZL      1

