@<TRIPOS>MOLECULE
2wtv_ligand_045
    48    52
SMALL
GAST_HUCK
****
This file was generated by PARSER (from files_GN.cpp)

@<TRIPOS>ATOM
      1 C13         6.3988   -6.5874    0.4594 C.3         1 ZZL       0.0407
      2 C15         7.9668   -6.7863   -1.4119 C.2         1 ZZL       0.0550
      3 C17         8.5013   -4.7661   -2.6501 C.ar        1 ZZL       0.1522
      4 C20        10.7929   -4.2657   -3.3107 C.ar        1 ZZL      -0.0589
      5 C21        11.2369   -5.4246   -2.6425 C.ar        1 ZZL      -0.0237
      6 C22        10.3074   -6.2674   -1.9915 C.ar        1 ZZL       0.1522
      7 C24         7.5234   -8.0252   -1.9468 C.ar        1 ZZL       0.0251
      8 C26         8.0971  -10.1150   -3.1494 C.ar        1 ZZL       0.0501
      9 C28         6.8031  -10.5991   -2.9594 C.ar        1 ZZL      -0.0388
     10 O01         1.3489  -11.4848   -7.1814 O.co2       1 ZZL      -0.5638
     11 C02         0.3662  -10.9658   -6.4072 C.2         1 ZZL       0.0552
     12 O03        -0.9143  -11.1202   -6.8294 O.co2       1 ZZL      -0.5638
     13 C04         0.6904  -10.0263   -5.4183 C.ar        1 ZZL      -0.0018
     14 C05         1.2809  -10.4619   -4.2057 C.ar        1 ZZL      -0.0573
     15 C06         1.6050   -9.5391   -3.2012 C.ar        1 ZZL      -0.0347
     16 C07         1.3647   -8.1564   -3.3877 C.ar        1 ZZL       0.0671
     17 N08         1.6393   -7.2318   -2.4299 N.pl3       1 ZZL      -0.2432
     18 C09         2.7845   -7.1066   -1.7295 C.ar        1 ZZL       0.2053
     19 N10         2.8632   -6.1740   -0.7557 N.ar        1 ZZL      -0.2577
     20 C11         4.0037   -5.9908   -0.0347 C.ar        1 ZZL       0.0185
     21 C12         5.1520   -6.7694   -0.3086 C.ar        1 ZZL       0.0154
     22 N14         7.4319   -6.2175   -0.3880 N.2         1 ZZL      -0.3323
     23 C16         8.9168   -5.9717   -2.0285 C.ar        1 ZZL       0.0838
     24 F18         7.2418   -4.4144   -2.6598 F           1 ZZL      -0.1759
     25 C19         9.4323   -3.9187   -3.2823 C.ar        1 ZZL      -0.0237
     26 F23        10.7583   -7.3119   -1.3612 F           1 ZZL      -0.1759
     27 C25         8.4544   -8.8516   -2.6439 C.ar        1 ZZL      -0.0267
     28 CL1         9.2379  -11.0914   -3.9469 Cl          1 ZZL      -0.0667
     29 C29         5.8530   -9.8046   -2.3181 C.ar        1 ZZL      -0.0425
     30 C30         6.1712   -8.5058   -1.8363 C.ar        1 ZZL       0.0182
     31 C31         5.0780   -7.7153   -1.3553 C.ar        1 ZZL       0.0633
     32 N32         3.8960   -7.8354   -2.0077 N.ar        1 ZZL      -0.2522
     33 C33         0.7766   -7.7198   -4.5926 C.ar        1 ZZL      -0.0347
     34 C34         0.4457   -8.6441   -5.5993 C.ar        1 ZZL      -0.0573
     35 H1          6.6388   -7.5119    0.9888 H           1 ZZL       0.0550
     36 H2          6.3028   -5.7929    1.2026 H           1 ZZL       0.0550
     37 H3         11.4620   -3.6732   -3.8127 H           1 ZZL       0.0651
     38 H4         12.2337   -5.6477   -2.6297 H           1 ZZL       0.0588
     39 H5          6.5478  -11.5331   -3.2959 H           1 ZZL       0.0679
     40 H6          1.4496  -11.4563   -4.0365 H           1 ZZL       0.0621
     41 H7          1.9984   -9.8818   -2.3237 H           1 ZZL       0.0543
     42 H8          0.9690   -6.5474   -2.2848 H           1 ZZL       0.2170
     43 H9          4.0132   -5.2753    0.6909 H           1 ZZL       0.0835
     44 H10         9.1207   -3.0526   -3.7358 H           1 ZZL       0.0588
     45 H11         9.4348   -8.5517   -2.7571 H           1 ZZL       0.0697
     46 H12         4.9072  -10.1897   -2.2058 H           1 ZZL       0.0662
     47 H13         0.6048   -6.7250   -4.7447 H           1 ZZL       0.0543
     48 H14         0.0545   -8.2971   -6.4762 H           1 ZZL       0.0621
@<TRIPOS>BOND
     1    21     1   1
     2     1    22   1
     3     2     7   1
     4    22     2   2
     5     2    23   1
     6    23     3  ar
     7     3    24   1
     8     3    25  ar
     9     5     4  ar
    10    25     4  ar
    11     6     5  ar
    12    23     6  ar
    13     6    26   1
    14     7    27  ar
    15     7    30  ar
    16     8     9  ar
    17    27     8  ar
    18     8    28   1
    19     9    29  ar
    20    11    10  ar
    21    11    12  ar
    22    13    11   1
    23    14    13  ar
    24    13    34  ar
    25    15    14  ar
    26    16    15  ar
    27    17    16   1
    28    16    33  ar
    29    18    17   1
    30    19    18  ar
    31    18    32  ar
    32    20    19  ar
    33    20    21  ar
    34    21    31  ar
    35    29    30  ar
    36    30    31   1
    37    31    32  ar
    38    33    34  ar
    39     1    35   1
    40     1    36   1
    41     4    37   1
    42     5    38   1
    43     9    39   1
    44    14    40   1
    45    15    41   1
    46    17    42   1
    47    20    43   1
    48    25    44   1
    49    27    45   1
    50    29    46   1
    51    33    47   1
    52    34    48   1
@<TRIPOS>SUBSTRUCTURE
     1  ZZL      1

