@<TRIPOS>MOLECULE
2wtv_ligand_029
    48    52
SMALL
GAST_HUCK
****
This file was generated by PARSER (from files_GN.cpp)

@<TRIPOS>ATOM
      1 C13        10.9337   -8.4669   -2.3754 C.3         1 ZZL       0.0407
      2 C15        12.3496  -10.4492   -2.3991 C.2         1 ZZL       0.0550
      3 C17        14.0619  -10.6808   -0.6439 C.ar        1 ZZL       0.1522
      4 C20        14.7709  -12.8944    0.0936 C.ar        1 ZZL      -0.0589
      5 C21        13.8489  -13.4850   -0.7822 C.ar        1 ZZL      -0.0237
      6 C22        13.0323  -12.6782   -1.6003 C.ar        1 ZZL       0.1522
      7 C24        12.1910  -10.7404   -3.7727 C.ar        1 ZZL       0.0251
      8 C26        13.2267  -11.5846   -5.8509 C.ar        1 ZZL       0.0501
      9 C28        11.9961  -11.4739   -6.5178 C.ar        1 ZZL      -0.0388
     10 O01         0.4255   -8.3267   -3.4187 O.co2       1 ZZL      -0.5638
     11 C02         0.9039   -9.5525   -3.0884 C.2         1 ZZL       0.0552
     12 O03         0.0965  -10.4045   -2.4056 O.co2       1 ZZL      -0.5638
     13 C04         2.2411   -9.8856   -3.3860 C.ar        1 ZZL      -0.0018
     14 C05         3.0767  -10.4790   -2.4128 C.ar        1 ZZL      -0.0573
     15 C06         4.4297  -10.7390   -2.7017 C.ar        1 ZZL      -0.0347
     16 C07         4.9460  -10.5035   -3.9946 C.ar        1 ZZL       0.0671
     17 N08         6.2203  -10.8239   -4.3379 N.pl3       1 ZZL      -0.2432
     18 C09         7.3330  -10.2746   -3.8165 C.ar        1 ZZL       0.2053
     19 N10         7.2958   -9.3116   -2.8579 N.ar        1 ZZL      -0.2577
     20 C11         8.4168   -8.7248   -2.3802 C.ar        1 ZZL       0.0185
     21 C12         9.6858   -9.0997   -2.8726 C.ar        1 ZZL       0.0154
     22 N14        11.7745   -9.4363   -1.8446 N.2         1 ZZL      -0.3323
     23 C16        13.1288  -11.2540   -1.5568 C.ar        1 ZZL       0.0838
     24 F18        14.2336   -9.3883   -0.5490 F           1 ZZL      -0.1759
     25 C19        14.8735  -11.4984    0.1696 C.ar        1 ZZL      -0.0237
     26 F23        12.1736  -13.2859   -2.3783 F           1 ZZL      -0.1759
     27 C25        13.3192  -11.2255   -4.4934 C.ar        1 ZZL      -0.0267
     28 CL1        14.6004  -12.1033   -6.6978 Cl          1 ZZL      -0.0667
     29 C29        10.8780  -10.9906   -5.8306 C.ar        1 ZZL      -0.0425
     30 C30        10.9459  -10.5971   -4.4670 C.ar        1 ZZL       0.0182
     31 C31         9.7329  -10.1098   -3.8684 C.ar        1 ZZL       0.0633
     32 N32         8.5500  -10.6368   -4.2970 N.ar        1 ZZL      -0.2522
     33 C33         4.1055   -9.9280   -4.9657 C.ar        1 ZZL      -0.0347
     34 C34         2.7746   -9.6025   -4.6592 C.ar        1 ZZL      -0.0573
     35 H1         10.7350   -7.7285   -1.5934 H           1 ZZL       0.0550
     36 H2         11.4308   -7.9516   -3.2009 H           1 ZZL       0.0550
     37 H3         15.3742  -13.4799    0.6743 H           1 ZZL       0.0651
     38 H4         13.7759  -14.5054   -0.8211 H           1 ZZL       0.0588
     39 H5         11.9138  -11.7225   -7.5011 H           1 ZZL       0.0679
     40 H6          2.7133  -10.7023   -1.4809 H           1 ZZL       0.0621
     41 H7          5.0450  -11.0933   -1.9597 H           1 ZZL       0.0543
     42 H8          6.3352  -11.4314   -5.0900 H           1 ZZL       0.2170
     43 H9          8.3145   -8.0048   -1.6653 H           1 ZZL       0.0835
     44 H10        15.5487  -11.0746    0.8088 H           1 ZZL       0.0588
     45 H11        14.2293  -11.3101   -4.0400 H           1 ZZL       0.0697
     46 H12        10.0022  -10.9114   -6.3487 H           1 ZZL       0.0662
     47 H13         4.4737   -9.7053   -5.9035 H           1 ZZL       0.0543
     48 H14         2.1815   -9.1860   -5.3887 H           1 ZZL       0.0621
@<TRIPOS>BOND
     1    21     1   1
     2     1    22   1
     3     2     7   1
     4    22     2   2
     5     2    23   1
     6    23     3  ar
     7     3    24   1
     8     3    25  ar
     9     5     4  ar
    10    25     4  ar
    11     6     5  ar
    12    23     6  ar
    13     6    26   1
    14     7    27  ar
    15     7    30  ar
    16     8     9  ar
    17    27     8  ar
    18     8    28   1
    19     9    29  ar
    20    11    10  ar
    21    11    12  ar
    22    13    11   1
    23    14    13  ar
    24    13    34  ar
    25    15    14  ar
    26    16    15  ar
    27    17    16   1
    28    16    33  ar
    29    18    17   1
    30    19    18  ar
    31    18    32  ar
    32    20    19  ar
    33    20    21  ar
    34    21    31  ar
    35    29    30  ar
    36    30    31   1
    37    31    32  ar
    38    33    34  ar
    39     1    35   1
    40     1    36   1
    41     4    37   1
    42     5    38   1
    43     9    39   1
    44    14    40   1
    45    15    41   1
    46    17    42   1
    47    20    43   1
    48    25    44   1
    49    27    45   1
    50    29    46   1
    51    33    47   1
    52    34    48   1
@<TRIPOS>SUBSTRUCTURE
     1  ZZL      1

