@<TRIPOS>MOLECULE
2wtv_ligand_061
    48    52
SMALL
GAST_HUCK
****
This file was generated by PARSER (from files_GN.cpp)

@<TRIPOS>ATOM
      1 C13         1.7221   -7.8084   -4.0219 C.3         1 ZZL       0.0407
      2 C15         3.4594   -9.3403   -4.7266 C.2         1 ZZL       0.0550
      3 C17         3.7257  -10.8345   -6.6556 C.ar        1 ZZL       0.1522
      4 C20         5.6165  -10.5208   -8.1602 C.ar        1 ZZL      -0.0589
      5 C21         6.0468   -9.4306   -7.3907 C.ar        1 ZZL      -0.0237
      6 C22         5.3263   -9.0317   -6.2501 C.ar        1 ZZL       0.1522
      7 C24         3.8216   -9.8211   -3.4503 C.ar        1 ZZL       0.0251
      8 C26         4.5642  -11.7406   -2.0845 C.ar        1 ZZL       0.0501
      9 C28         4.5948  -10.9253   -0.9441 C.ar        1 ZZL      -0.0388
     10 O01        10.2918   -5.8427    2.6481 O.co2       1 ZZL      -0.5638
     11 C02         8.9845   -6.0674    2.9254 C.2         1 ZZL       0.0552
     12 O03         8.6740   -7.0098    3.8398 O.co2       1 ZZL      -0.5638
     13 C04         7.9861   -5.6657    2.0227 C.ar        1 ZZL      -0.0018
     14 C05         7.9574   -6.1603    0.7045 C.ar        1 ZZL      -0.0573
     15 C06         6.8892   -5.8348   -0.1562 C.ar        1 ZZL      -0.0347
     16 C07         5.8367   -4.9934    0.2833 C.ar        1 ZZL       0.0671
     17 N08         4.7892   -4.6432   -0.5074 N.pl3       1 ZZL      -0.2432
     18 C09         4.0691   -5.4371   -1.3440 C.ar        1 ZZL       0.2053
     19 N10         3.0937   -4.8760   -2.0939 N.ar        1 ZZL      -0.2577
     20 C11         2.3364   -5.5988   -2.9532 C.ar        1 ZZL       0.0185
     21 C12         2.5340   -6.9967   -3.0834 C.ar        1 ZZL       0.0154
     22 N14         2.5500   -8.4522   -4.9339 N.2         1 ZZL      -0.3323
     23 C16         4.1531   -9.7317   -5.8701 C.ar        1 ZZL       0.0838
     24 F18         2.6569  -11.5227   -6.3408 F           1 ZZL      -0.1759
     25 C19         4.4622  -11.2278   -7.7910 C.ar        1 ZZL      -0.0237
     26 F23         5.7639   -7.9973   -5.5742 F           1 ZZL      -0.1759
     27 C25         4.1867  -11.1851   -3.3192 C.ar        1 ZZL      -0.0267
     28 CL1         4.9872  -13.3770   -1.9777 Cl          1 ZZL      -0.0667
     29 C29         4.2513   -9.5719   -1.0467 C.ar        1 ZZL      -0.0425
     30 C30         3.8525   -8.9909   -2.2777 C.ar        1 ZZL       0.0182
     31 C31         3.5439   -7.5895   -2.2744 C.ar        1 ZZL       0.0633
     32 N32         4.2622   -6.7748   -1.4503 N.ar        1 ZZL      -0.2522
     33 C33         5.9128   -4.4446    1.5807 C.ar        1 ZZL      -0.0347
     34 C34         6.9663   -4.7884    2.4484 C.ar        1 ZZL      -0.0573
     35 H1          1.0221   -7.1879   -4.5860 H           1 ZZL       0.0550
     36 H2          1.1359   -8.5474   -3.4658 H           1 ZZL       0.0550
     37 H3          6.1332  -10.7902   -8.9965 H           1 ZZL       0.0651
     38 H4          6.8815   -8.9179   -7.6663 H           1 ZZL       0.0588
     39 H5          4.8624  -11.3206   -0.0405 H           1 ZZL       0.0679
     40 H6          8.7000   -6.7811    0.3586 H           1 ZZL       0.0621
     41 H7          6.9030   -6.1884   -1.1154 H           1 ZZL       0.0543
     42 H8          4.4705   -3.7305   -0.4145 H           1 ZZL       0.2170
     43 H9          1.6288   -5.1150   -3.5067 H           1 ZZL       0.0835
     44 H10         4.1584  -12.0211   -8.3583 H           1 ZZL       0.0588
     45 H11         4.1700  -11.8120   -4.1278 H           1 ZZL       0.0697
     46 H12         4.2827   -9.0115   -0.1920 H           1 ZZL       0.0662
     47 H13         5.1733   -3.8280    1.9145 H           1 ZZL       0.0543
     48 H14         6.9759   -4.3973    3.3924 H           1 ZZL       0.0621
@<TRIPOS>BOND
     1    21     1   1
     2     1    22   1
     3     2     7   1
     4    22     2   2
     5     2    23   1
     6    23     3  ar
     7     3    24   1
     8     3    25  ar
     9     5     4  ar
    10    25     4  ar
    11     6     5  ar
    12    23     6  ar
    13     6    26   1
    14     7    27  ar
    15     7    30  ar
    16     8     9  ar
    17    27     8  ar
    18     8    28   1
    19     9    29  ar
    20    11    10  ar
    21    11    12  ar
    22    13    11   1
    23    14    13  ar
    24    13    34  ar
    25    15    14  ar
    26    16    15  ar
    27    17    16   1
    28    16    33  ar
    29    18    17   1
    30    19    18  ar
    31    18    32  ar
    32    20    19  ar
    33    20    21  ar
    34    21    31  ar
    35    29    30  ar
    36    30    31   1
    37    31    32  ar
    38    33    34  ar
    39     1    35   1
    40     1    36   1
    41     4    37   1
    42     5    38   1
    43     9    39   1
    44    14    40   1
    45    15    41   1
    46    17    42   1
    47    20    43   1
    48    25    44   1
    49    27    45   1
    50    29    46   1
    51    33    47   1
    52    34    48   1
@<TRIPOS>SUBSTRUCTURE
     1  ZZL      1

