@<TRIPOS>MOLECULE
2wtv_ligand_026
    48    52
SMALL
GAST_HUCK
****
This file was generated by PARSER (from files_GN.cpp)

@<TRIPOS>ATOM
      1 C13        10.4194  -14.3988   -3.4728 C.3         1 ZZL       0.0407
      2 C15         8.9432  -12.4897   -3.1242 C.2         1 ZZL       0.0550
      3 C17         7.0017  -12.8399   -1.6262 C.ar        1 ZZL       0.1522
      4 C20         4.9635  -11.5357   -1.9202 C.ar        1 ZZL      -0.0589
      5 C21         5.5510  -10.8703   -3.0074 C.ar        1 ZZL      -0.0237
      6 C22         6.8616  -11.1902   -3.4133 C.ar        1 ZZL       0.1522
      7 C24         9.9040  -11.5054   -3.4624 C.ar        1 ZZL       0.0251
      8 C26        10.8392   -9.2727   -2.9695 C.ar        1 ZZL       0.0501
      9 C28        11.7327   -9.4012   -4.0411 C.ar        1 ZZL      -0.0388
     10 O01        11.1102  -17.1530  -14.0459 O.co2       1 ZZL      -0.5638
     11 C02        12.0712  -17.0317  -13.1011 C.2         1 ZZL       0.0552
     12 O03        13.1583  -17.8268  -13.2362 O.co2       1 ZZL      -0.5638
     13 C04        11.9539  -16.1106  -12.0300 C.ar        1 ZZL      -0.0018
     14 C05        10.9886  -15.0753  -12.0573 C.ar        1 ZZL      -0.0573
     15 C06        10.8965  -14.1482  -11.0018 C.ar        1 ZZL      -0.0347
     16 C07        11.7210  -14.2725   -9.8668 C.ar        1 ZZL       0.0671
     17 N08        11.5927  -13.3710   -8.8577 N.pl3       1 ZZL      -0.2432
     18 C09        11.3662  -13.6730   -7.5619 C.ar        1 ZZL       0.2053
     19 N10        11.2112  -14.9405   -7.1020 N.ar        1 ZZL      -0.2577
     20 C11        10.9167  -15.1969   -5.8064 C.ar        1 ZZL       0.0185
     21 C12        10.7634  -14.1357   -4.8866 C.ar        1 ZZL       0.0154
     22 N14         9.2412  -13.7443   -3.1495 N.2         1 ZZL      -0.3323
     23 C16         7.6246  -12.1783   -2.7259 C.ar        1 ZZL       0.0838
     24 F18         7.6302  -13.7364   -0.9096 F           1 ZZL      -0.1759
     25 C19         5.6865  -12.5237   -1.2357 C.ar        1 ZZL      -0.0237
     26 F23         7.3214  -10.5662   -4.4680 F           1 ZZL      -0.1759
     27 C25         9.9440  -10.3179   -2.6827 C.ar        1 ZZL      -0.0267
     28 CL1        10.8484   -7.8716   -2.0192 Cl          1 ZZL      -0.0667
     29 C29        11.7336  -10.5728   -4.8129 C.ar        1 ZZL      -0.0425
     30 C30        10.8428  -11.6457   -4.5380 C.ar        1 ZZL       0.0182
     31 C31        10.9382  -12.8114   -5.3675 C.ar        1 ZZL       0.0633
     32 N32        11.2268  -12.6475   -6.6889 N.ar        1 ZZL      -0.2522
     33 C33        12.6749  -15.3103   -9.8245 C.ar        1 ZZL      -0.0347
     34 C34        12.7998  -16.2084  -10.8996 C.ar        1 ZZL      -0.0573
     35 H1         11.2270  -14.0636   -2.8189 H           1 ZZL       0.0550
     36 H2         10.2609  -15.4608   -3.2917 H           1 ZZL       0.0550
     37 H3          4.0089  -11.3086   -1.6320 H           1 ZZL       0.0651
     38 H4          5.0118  -10.1591   -3.5076 H           1 ZZL       0.0588
     39 H5         12.3956   -8.6521   -4.2573 H           1 ZZL       0.0679
     40 H6         10.3529  -14.9727  -12.8532 H           1 ZZL       0.0621
     41 H7         10.2036  -13.3970  -11.0518 H           1 ZZL       0.0543
     42 H8         11.5273  -12.4358   -9.1010 H           1 ZZL       0.2170
     43 H9         10.8029  -16.1698   -5.5150 H           1 ZZL       0.0835
     44 H10         5.2513  -13.0104   -0.4473 H           1 ZZL       0.0588
     45 H11         9.3171  -10.2079   -1.8811 H           1 ZZL       0.0697
     46 H12        12.4177  -10.6376   -5.5731 H           1 ZZL       0.0662
     47 H13        13.2959  -15.4054   -9.0179 H           1 ZZL       0.0543
     48 H14        13.5123  -16.9401  -10.8416 H           1 ZZL       0.0621
@<TRIPOS>BOND
     1    21     1   1
     2     1    22   1
     3     2     7   1
     4    22     2   2
     5     2    23   1
     6    23     3  ar
     7     3    24   1
     8     3    25  ar
     9     5     4  ar
    10    25     4  ar
    11     6     5  ar
    12    23     6  ar
    13     6    26   1
    14     7    27  ar
    15     7    30  ar
    16     8     9  ar
    17    27     8  ar
    18     8    28   1
    19     9    29  ar
    20    11    10  ar
    21    11    12  ar
    22    13    11   1
    23    14    13  ar
    24    13    34  ar
    25    15    14  ar
    26    16    15  ar
    27    17    16   1
    28    16    33  ar
    29    18    17   1
    30    19    18  ar
    31    18    32  ar
    32    20    19  ar
    33    20    21  ar
    34    21    31  ar
    35    29    30  ar
    36    30    31   1
    37    31    32  ar
    38    33    34  ar
    39     1    35   1
    40     1    36   1
    41     4    37   1
    42     5    38   1
    43     9    39   1
    44    14    40   1
    45    15    41   1
    46    17    42   1
    47    20    43   1
    48    25    44   1
    49    27    45   1
    50    29    46   1
    51    33    47   1
    52    34    48   1
@<TRIPOS>SUBSTRUCTURE
     1  ZZL      1

