@<TRIPOS>MOLECULE
2wtv_ligand_089
    48    52
SMALL
GAST_HUCK
****
This file was generated by PARSER (from files_GN.cpp)

@<TRIPOS>ATOM
      1 C13         4.6979   -8.4473    0.0596 C.3         1 ZZL       0.0407
      2 C15         4.8292  -10.3499   -1.4565 C.2         1 ZZL       0.0550
      3 C17         5.7290  -12.6355   -1.2713 C.ar        1 ZZL       0.1522
      4 C20         4.3562  -14.5279   -1.9687 C.ar        1 ZZL      -0.0589
      5 C21         3.2854  -13.6590   -2.2257 C.ar        1 ZZL      -0.0237
      6 C22         3.4302  -12.2758   -2.0080 C.ar        1 ZZL       0.1522
      7 C24         5.1304   -9.6138   -2.6213 C.ar        1 ZZL       0.0251
      8 C26         6.3618   -9.5177   -4.7559 C.ar        1 ZZL       0.0501
      9 C28         5.8053   -8.2588   -5.0308 C.ar        1 ZZL      -0.0388
     10 O01        -2.1276   -6.6892   -8.6605 O.co2       1 ZZL      -0.5638
     11 C02        -0.8953   -6.5312   -8.1111 C.2         1 ZZL       0.0552
     12 O03         0.1312   -6.1336   -8.8900 O.co2       1 ZZL      -0.5638
     13 C04        -0.6984   -6.5678   -6.7233 C.ar        1 ZZL      -0.0018
     14 C05         0.1910   -7.5122   -6.1656 C.ar        1 ZZL      -0.0573
     15 C06         0.4843   -7.4755   -4.7932 C.ar        1 ZZL      -0.0347
     16 C07        -0.0273   -6.4477   -3.9611 C.ar        1 ZZL       0.0671
     17 N08         0.2966   -6.2654   -2.6437 N.pl3       1 ZZL      -0.2432
     18 C09         1.4384   -6.6324   -2.0122 C.ar        1 ZZL       0.2053
     19 N10         1.5336   -6.5132   -0.6645 N.ar        1 ZZL      -0.2577
     20 C11         2.5953   -7.0159    0.0247 C.ar        1 ZZL       0.0185
     21 C12         3.6331   -7.7042   -0.6531 C.ar        1 ZZL       0.0154
     22 N14         4.6572   -9.7960   -0.3078 N.2         1 ZZL      -0.3323
     23 C16         4.6568  -11.7405   -1.5301 C.ar        1 ZZL       0.0838
     24 F18         6.9101  -12.2128   -0.9071 F           1 ZZL      -0.1759
     25 C19         5.5767  -14.0188   -1.4923 C.ar        1 ZZL      -0.0237
     26 F23         2.4001  -11.5088   -2.2773 F           1 ZZL      -0.1759
     27 C25         6.0277  -10.1801   -3.5636 C.ar        1 ZZL      -0.0267
     28 CL1         7.4275  -10.2461   -5.8479 Cl          1 ZZL      -0.0667
     29 C29         4.9106   -7.6815   -4.1150 C.ar        1 ZZL      -0.0425
     30 C30         4.5494   -8.3381   -2.9113 C.ar        1 ZZL       0.0182
     31 C31         3.5831   -7.7143   -2.0679 C.ar        1 ZZL       0.0633
     32 N32         2.4889   -7.1860   -2.6675 N.ar        1 ZZL      -0.2522
     33 C33        -0.9623   -5.5521   -4.5230 C.ar        1 ZZL      -0.0347
     34 C34        -1.3159   -5.6242   -5.8822 C.ar        1 ZZL      -0.0573
     35 H1          4.5665   -8.3779    1.1430 H           1 ZZL       0.0550
     36 H2          5.6746   -8.0244   -0.1878 H           1 ZZL       0.0550
     37 H3          4.2513  -15.5291   -2.1297 H           1 ZZL       0.0651
     38 H4          2.4033  -14.0357   -2.5804 H           1 ZZL       0.0588
     39 H5          6.0413   -7.7595   -5.8913 H           1 ZZL       0.0679
     40 H6          0.6261   -8.2307   -6.7566 H           1 ZZL       0.0621
     41 H7          1.0774   -8.2177   -4.4246 H           1 ZZL       0.0543
     42 H8         -0.3844   -5.8254   -2.1117 H           1 ZZL       0.2170
     43 H9          2.5916   -6.9468    1.0453 H           1 ZZL       0.0835
     44 H10         6.3603  -14.6555   -1.3252 H           1 ZZL       0.0588
     45 H11         6.4606  -11.0852   -3.3863 H           1 ZZL       0.0697
     46 H12         4.5190   -6.7597   -4.3385 H           1 ZZL       0.0662
     47 H13        -1.3603   -4.8018   -3.9575 H           1 ZZL       0.0543
     48 H14        -1.9706   -4.9343   -6.2604 H           1 ZZL       0.0621
@<TRIPOS>BOND
     1    21     1   1
     2     1    22   1
     3     2     7   1
     4    22     2   2
     5     2    23   1
     6    23     3  ar
     7     3    24   1
     8     3    25  ar
     9     5     4  ar
    10    25     4  ar
    11     6     5  ar
    12    23     6  ar
    13     6    26   1
    14     7    27  ar
    15     7    30  ar
    16     8     9  ar
    17    27     8  ar
    18     8    28   1
    19     9    29  ar
    20    11    10  ar
    21    11    12  ar
    22    13    11   1
    23    14    13  ar
    24    13    34  ar
    25    15    14  ar
    26    16    15  ar
    27    17    16   1
    28    16    33  ar
    29    18    17   1
    30    19    18  ar
    31    18    32  ar
    32    20    19  ar
    33    20    21  ar
    34    21    31  ar
    35    29    30  ar
    36    30    31   1
    37    31    32  ar
    38    33    34  ar
    39     1    35   1
    40     1    36   1
    41     4    37   1
    42     5    38   1
    43     9    39   1
    44    14    40   1
    45    15    41   1
    46    17    42   1
    47    20    43   1
    48    25    44   1
    49    27    45   1
    50    29    46   1
    51    33    47   1
    52    34    48   1
@<TRIPOS>SUBSTRUCTURE
     1  ZZL      1

