@<TRIPOS>MOLECULE
2wtv_ligand_086
    48    52
SMALL
GAST_HUCK
****
This file was generated by PARSER (from files_GN.cpp)

@<TRIPOS>ATOM
      1 C13         3.1061  -10.7637   -2.3772 C.3         1 ZZL       0.0407
      2 C15         3.6344   -9.8284   -4.5469 C.2         1 ZZL       0.0550
      3 C17         5.3646   -9.4638   -6.2299 C.ar        1 ZZL       0.1522
      4 C20         5.4154  -10.8497   -8.2353 C.ar        1 ZZL      -0.0589
      5 C21         4.2751  -11.5364   -7.7905 C.ar        1 ZZL      -0.0237
      6 C22         3.6871  -11.2127   -6.5556 C.ar        1 ZZL       0.1522
      7 C24         3.1224   -8.5398   -4.2982 C.ar        1 ZZL       0.0251
      8 C26         1.8680   -6.6183   -5.1980 C.ar        1 ZZL       0.0501
      9 C28         2.0538   -5.9267   -3.9916 C.ar        1 ZZL      -0.0388
     10 O01         7.6990   -1.2346   -0.8249 O.co2       1 ZZL      -0.5638
     11 C02         7.0176   -1.7117    0.2444 C.2         1 ZZL       0.0552
     12 O03         6.5464   -0.8085    1.1385 O.co2       1 ZZL      -0.5638
     13 C04         6.7599   -3.0946    0.3781 C.ar        1 ZZL      -0.0018
     14 C05         7.8154   -4.0224    0.2244 C.ar        1 ZZL      -0.0573
     15 C06         7.5783   -5.3985    0.3558 C.ar        1 ZZL      -0.0347
     16 C07         6.2788   -5.8735    0.6162 C.ar        1 ZZL       0.0671
     17 N08         6.0847   -7.2045    0.7837 N.pl3       1 ZZL      -0.2432
     18 C09         5.3348   -7.9981   -0.0127 C.ar        1 ZZL       0.2053
     19 N10         5.3083   -9.3161    0.2896 N.ar        1 ZZL      -0.2577
     20 C11         4.6174  -10.2110   -0.4530 C.ar        1 ZZL       0.0185
     21 C12         3.8743   -9.7840   -1.5721 C.ar        1 ZZL       0.0154
     22 N14         3.5966  -10.7729   -3.6732 N.2         1 ZZL      -0.3323
     23 C16         4.2240  -10.1674   -5.7610 C.ar        1 ZZL       0.0838
     24 F18         5.9194   -8.5013   -5.5392 F           1 ZZL      -0.1759
     25 C19         5.9583   -9.8163   -7.4548 C.ar        1 ZZL      -0.0237
     26 F23         2.6177  -11.8756   -6.1953 F           1 ZZL      -0.1759
     27 C25         2.4076   -7.9062   -5.3482 C.ar        1 ZZL      -0.0267
     28 CL1         0.9822   -5.9270   -6.4681 Cl          1 ZZL      -0.0667
     29 C29         2.7383   -6.5418   -2.9333 C.ar        1 ZZL      -0.0425
     30 C30         3.2678   -7.8518   -3.0517 C.ar        1 ZZL       0.0182
     31 C31         3.9334   -8.4048   -1.9146 C.ar        1 ZZL       0.0633
     32 N32         4.6574   -7.5722   -1.1120 N.ar        1 ZZL      -0.2522
     33 C33         5.2196   -4.9547    0.7594 C.ar        1 ZZL      -0.0347
     34 C34         5.4595   -3.5736    0.6667 C.ar        1 ZZL      -0.0573
     35 H1          2.0462  -10.4960   -2.3752 H           1 ZZL       0.0550
     36 H2          3.1992  -11.7805   -1.9886 H           1 ZZL       0.0550
     37 H3          5.8443  -11.0979   -9.1269 H           1 ZZL       0.0651
     38 H4          3.8736  -12.2741   -8.3695 H           1 ZZL       0.0588
     39 H5          1.6790   -4.9824   -3.8718 H           1 ZZL       0.0679
     40 H6          8.7727   -3.6956    0.0424 H           1 ZZL       0.0621
     41 H7          8.3660   -6.0445    0.2512 H           1 ZZL       0.0543
     42 H8          6.6337   -7.6503    1.4570 H           1 ZZL       0.2170
     43 H9          4.6397  -11.1960   -0.1802 H           1 ZZL       0.0835
     44 H10         6.7886   -9.3238   -7.7773 H           1 ZZL       0.0588
     45 H11         2.2466   -8.3951   -6.2382 H           1 ZZL       0.0697
     46 H12         2.8227   -6.0186   -2.0596 H           1 ZZL       0.0662
     47 H13         4.2818   -5.2855    0.9760 H           1 ZZL       0.0543
     48 H14         4.6710   -2.9336    0.7855 H           1 ZZL       0.0621
@<TRIPOS>BOND
     1    21     1   1
     2     1    22   1
     3     2     7   1
     4    22     2   2
     5     2    23   1
     6    23     3  ar
     7     3    24   1
     8     3    25  ar
     9     5     4  ar
    10    25     4  ar
    11     6     5  ar
    12    23     6  ar
    13     6    26   1
    14     7    27  ar
    15     7    30  ar
    16     8     9  ar
    17    27     8  ar
    18     8    28   1
    19     9    29  ar
    20    11    10  ar
    21    11    12  ar
    22    13    11   1
    23    14    13  ar
    24    13    34  ar
    25    15    14  ar
    26    16    15  ar
    27    17    16   1
    28    16    33  ar
    29    18    17   1
    30    19    18  ar
    31    18    32  ar
    32    20    19  ar
    33    20    21  ar
    34    21    31  ar
    35    29    30  ar
    36    30    31   1
    37    31    32  ar
    38    33    34  ar
    39     1    35   1
    40     1    36   1
    41     4    37   1
    42     5    38   1
    43     9    39   1
    44    14    40   1
    45    15    41   1
    46    17    42   1
    47    20    43   1
    48    25    44   1
    49    27    45   1
    50    29    46   1
    51    33    47   1
    52    34    48   1
@<TRIPOS>SUBSTRUCTURE
     1  ZZL      1

