@<TRIPOS>MOLECULE
2wtv_ligand_042
    48    52
SMALL
GAST_HUCK
****
This file was generated by PARSER (from files_GN.cpp)

@<TRIPOS>ATOM
      1 C13         2.3985  -21.5460   -2.6908 C.3         1 ZZL       0.0407
      2 C15         1.6140  -21.9482   -4.9693 C.2         1 ZZL       0.0550
      3 C17         0.0013  -23.2305   -6.3552 C.ar        1 ZZL       0.1522
      4 C20        -2.1590  -22.2516   -6.9233 C.ar        1 ZZL      -0.0589
      5 C21        -1.8295  -21.1096   -6.1733 C.ar        1 ZZL      -0.0237
      6 C22        -0.5816  -21.0202   -5.5337 C.ar        1 ZZL       0.1522
      7 C24         2.8865  -21.9355   -5.6067 C.ar        1 ZZL       0.0251
      8 C26         4.3443  -22.8577   -7.3932 C.ar        1 ZZL       0.0501
      9 C28         5.4145  -22.0835   -6.9312 C.ar        1 ZZL      -0.0388
     10 O01         4.7427  -12.3410    0.7469 O.co2       1 ZZL      -0.5638
     11 C02         5.1325  -12.2383   -0.5503 C.2         1 ZZL       0.0552
     12 O03         5.2394  -10.9887   -1.0698 O.co2       1 ZZL      -0.5638
     13 C04         5.2119  -13.3760   -1.3592 C.ar        1 ZZL      -0.0018
     14 C05         6.0971  -14.4248   -1.0362 C.ar        1 ZZL      -0.0573
     15 C06         6.1633  -15.5827   -1.8250 C.ar        1 ZZL      -0.0347
     16 C07         5.3094  -15.7206   -2.9389 C.ar        1 ZZL       0.0671
     17 N08         5.3211  -16.8593   -3.6882 N.pl3       1 ZZL      -0.2432
     18 C09         4.6046  -17.9604   -3.3958 C.ar        1 ZZL       0.2053
     19 N10         3.8882  -18.1178   -2.2563 N.ar        1 ZZL      -0.2577
     20 C11         3.1763  -19.2437   -1.9987 C.ar        1 ZZL       0.0185
     21 C12         3.1571  -20.3012   -2.9380 C.ar        1 ZZL       0.0154
     22 N14         1.4751  -21.7574   -3.7001 N.2         1 ZZL      -0.3323
     23 C16         0.3778  -22.0608   -5.6444 C.ar        1 ZZL       0.0838
     24 F18         0.7929  -24.2624   -6.4481 F           1 ZZL      -0.1759
     25 C19        -1.2466  -23.3163   -6.9998 C.ar        1 ZZL      -0.0237
     26 F23        -0.3504  -19.9541   -4.8156 F           1 ZZL      -0.1759
     27 C25         3.1187  -22.7907   -6.7204 C.ar        1 ZZL      -0.0267
     28 CL1         4.5494  -23.8951   -8.7079 Cl          1 ZZL      -0.0667
     29 C29         5.2360  -21.2236   -5.8416 C.ar        1 ZZL      -0.0425
     30 C30         3.9824  -21.1091   -5.1854 C.ar        1 ZZL       0.0182
     31 C31         3.8997  -20.1317   -4.1398 C.ar        1 ZZL       0.0633
     32 N32         4.5875  -18.9598   -4.2996 N.ar        1 ZZL      -0.2522
     33 C33         4.4318  -14.6672   -3.2831 C.ar        1 ZZL      -0.0347
     34 C34         4.3937  -13.5077   -2.5054 C.ar        1 ZZL      -0.0573
     35 H1          1.8445  -21.4747   -1.7497 H           1 ZZL       0.0550
     36 H2          3.0795  -22.3984   -2.6064 H           1 ZZL       0.0550
     37 H3         -3.0582  -22.3197   -7.3969 H           1 ZZL       0.0651
     38 H4         -2.5173  -20.3583   -6.0812 H           1 ZZL       0.0588
     39 H5          6.3354  -22.1474   -7.3689 H           1 ZZL       0.0679
     40 H6          6.7204  -14.3531   -0.2201 H           1 ZZL       0.0621
     41 H7          6.8081  -16.3375   -1.5775 H           1 ZZL       0.0543
     42 H8          5.8241  -16.8404   -4.5153 H           1 ZZL       0.2170
     43 H9          2.6611  -19.3119   -1.1256 H           1 ZZL       0.0835
     44 H10        -1.5016  -24.1594   -7.5206 H           1 ZZL       0.0588
     45 H11         2.3733  -23.4255   -7.0546 H           1 ZZL       0.0697
     46 H12         6.0483  -20.6845   -5.5349 H           1 ZZL       0.0662
     47 H13         3.8121  -14.7638   -4.0930 H           1 ZZL       0.0543
     48 H14         3.7306  -12.7653   -2.7628 H           1 ZZL       0.0621
@<TRIPOS>BOND
     1    21     1   1
     2     1    22   1
     3     2     7   1
     4    22     2   2
     5     2    23   1
     6    23     3  ar
     7     3    24   1
     8     3    25  ar
     9     5     4  ar
    10    25     4  ar
    11     6     5  ar
    12    23     6  ar
    13     6    26   1
    14     7    27  ar
    15     7    30  ar
    16     8     9  ar
    17    27     8  ar
    18     8    28   1
    19     9    29  ar
    20    11    10  ar
    21    11    12  ar
    22    13    11   1
    23    14    13  ar
    24    13    34  ar
    25    15    14  ar
    26    16    15  ar
    27    17    16   1
    28    16    33  ar
    29    18    17   1
    30    19    18  ar
    31    18    32  ar
    32    20    19  ar
    33    20    21  ar
    34    21    31  ar
    35    29    30  ar
    36    30    31   1
    37    31    32  ar
    38    33    34  ar
    39     1    35   1
    40     1    36   1
    41     4    37   1
    42     5    38   1
    43     9    39   1
    44    14    40   1
    45    15    41   1
    46    17    42   1
    47    20    43   1
    48    25    44   1
    49    27    45   1
    50    29    46   1
    51    33    47   1
    52    34    48   1
@<TRIPOS>SUBSTRUCTURE
     1  ZZL      1

