@<TRIPOS>MOLECULE
2wtv_ligand_096
    48    52
SMALL
GAST_HUCK
****
This file was generated by PARSER (from files_GN.cpp)

@<TRIPOS>ATOM
      1 C13         5.2914  -18.5680   -1.6585 C.3         1 ZZL       0.0407
      2 C15         3.9878  -19.6411   -3.3774 C.2         1 ZZL       0.0550
      3 C17         3.5285  -21.8850   -4.2107 C.ar        1 ZZL       0.1522
      4 C20         4.5062  -22.6106   -6.3283 C.ar        1 ZZL      -0.0589
      5 C21         5.1380  -21.3548   -6.4607 C.ar        1 ZZL      -0.0237
      6 C22         4.9490  -20.3570   -5.4891 C.ar        1 ZZL       0.1522
      7 C24         2.8951  -18.7573   -3.3485 C.ar        1 ZZL       0.0251
      8 C26         0.4488  -18.4949   -3.4464 C.ar        1 ZZL       0.0501
      9 C28         0.6047  -17.0955   -3.4817 C.ar        1 ZZL      -0.0388
     10 O01         0.9571   -9.4446   -5.3970 O.co2       1 ZZL      -0.5638
     11 C02         1.8291  -10.1779   -6.1345 C.2         1 ZZL       0.0552
     12 O03         1.7598  -10.0791   -7.4854 O.co2       1 ZZL      -0.5638
     13 C04         2.8270  -10.9512   -5.5172 C.ar        1 ZZL      -0.0018
     14 C05         2.5529  -11.6486   -4.3158 C.ar        1 ZZL      -0.0573
     15 C06         3.5317  -12.4555   -3.7267 C.ar        1 ZZL      -0.0347
     16 C07         4.8175  -12.5912   -4.3061 C.ar        1 ZZL       0.0671
     17 N08         5.7749  -13.3845   -3.7656 N.pl3       1 ZZL      -0.2432
     18 C09         5.6144  -14.6486   -3.3166 C.ar        1 ZZL       0.2053
     19 N10         6.6565  -15.2259   -2.6769 N.ar        1 ZZL      -0.2577
     20 C11         6.5720  -16.4782   -2.1688 C.ar        1 ZZL       0.0185
     21 C12         5.3865  -17.2312   -2.2916 C.ar        1 ZZL       0.0154
     22 N14         5.0297  -19.5108   -2.6357 N.2         1 ZZL      -0.3323
     23 C16         4.1290  -20.6059   -4.3599 C.ar        1 ZZL       0.0838
     24 F18         2.7914  -22.1631   -3.1653 F           1 ZZL      -0.1759
     25 C19         3.7168  -22.8722   -5.1967 C.ar        1 ZZL      -0.0237
     26 F23         5.5847  -19.2181   -5.6411 F           1 ZZL      -0.1759
     27 C25         1.5889  -19.3182   -3.4088 C.ar        1 ZZL      -0.0267
     28 CL1        -1.0987  -19.1853   -3.4561 Cl          1 ZZL      -0.0667
     29 C29         1.8876  -16.5308   -3.3803 C.ar        1 ZZL      -0.0425
     30 C30         3.0521  -17.3339   -3.2576 C.ar        1 ZZL       0.0182
     31 C31         4.3072  -16.6598   -3.0247 C.ar        1 ZZL       0.0633
     32 N32         4.4797  -15.3836   -3.4854 N.ar        1 ZZL      -0.2522
     33 C33         5.1110  -11.8400   -5.4615 C.ar        1 ZZL      -0.0347
     34 C34         4.1227  -11.0520   -6.0755 C.ar        1 ZZL      -0.0573
     35 H1          4.4949  -18.5728   -0.9068 H           1 ZZL       0.0550
     36 H2          6.2258  -18.8523   -1.1721 H           1 ZZL       0.0550
     37 H3          4.6438  -23.3286   -7.0393 H           1 ZZL       0.0651
     38 H4          5.7329  -21.1730   -7.2760 H           1 ZZL       0.0588
     39 H5         -0.2192  -16.4862   -3.5324 H           1 ZZL       0.0679
     40 H6          1.6323  -11.5858   -3.8755 H           1 ZZL       0.0621
     41 H7          3.3114  -12.9468   -2.8528 H           1 ZZL       0.0543
     42 H8          6.6788  -13.0348   -3.7507 H           1 ZZL       0.2170
     43 H9          7.3799  -16.8605   -1.6813 H           1 ZZL       0.0835
     44 H10         3.2971  -23.8014   -5.0729 H           1 ZZL       0.0588
     45 H11         1.4604  -20.3562   -3.3995 H           1 ZZL       0.0697
     46 H12         1.9460  -15.5034   -3.3341 H           1 ZZL       0.0662
     47 H13         6.0473  -11.8805   -5.8793 H           1 ZZL       0.0543
     48 H14         4.3627  -10.5338   -6.9307 H           1 ZZL       0.0621
@<TRIPOS>BOND
     1    21     1   1
     2     1    22   1
     3     2     7   1
     4    22     2   2
     5     2    23   1
     6    23     3  ar
     7     3    24   1
     8     3    25  ar
     9     5     4  ar
    10    25     4  ar
    11     6     5  ar
    12    23     6  ar
    13     6    26   1
    14     7    27  ar
    15     7    30  ar
    16     8     9  ar
    17    27     8  ar
    18     8    28   1
    19     9    29  ar
    20    11    10  ar
    21    11    12  ar
    22    13    11   1
    23    14    13  ar
    24    13    34  ar
    25    15    14  ar
    26    16    15  ar
    27    17    16   1
    28    16    33  ar
    29    18    17   1
    30    19    18  ar
    31    18    32  ar
    32    20    19  ar
    33    20    21  ar
    34    21    31  ar
    35    29    30  ar
    36    30    31   1
    37    31    32  ar
    38    33    34  ar
    39     1    35   1
    40     1    36   1
    41     4    37   1
    42     5    38   1
    43     9    39   1
    44    14    40   1
    45    15    41   1
    46    17    42   1
    47    20    43   1
    48    25    44   1
    49    27    45   1
    50    29    46   1
    51    33    47   1
    52    34    48   1
@<TRIPOS>SUBSTRUCTURE
     1  ZZL      1

