@<TRIPOS>MOLECULE
2wtv_ligand_070
    48    52
SMALL
GAST_HUCK
****
This file was generated by PARSER (from files_GN.cpp)

@<TRIPOS>ATOM
      1 C13         5.9223  -11.2318   -6.1271 C.3         1 ZZL       0.0407
      2 C15         7.6732  -12.6604   -5.1715 C.2         1 ZZL       0.0550
      3 C17         8.9479  -13.9827   -6.8574 C.ar        1 ZZL       0.1522
      4 C20        11.1218  -14.9389   -6.3186 C.ar        1 ZZL      -0.0589
      5 C21        11.0377  -14.3907   -5.0315 C.ar        1 ZZL      -0.0237
      6 C22         9.9245  -13.6094   -4.6627 C.ar        1 ZZL       0.1522
      7 C24         7.1712  -12.6053   -3.8452 C.ar        1 ZZL       0.0251
      8 C26         6.8145  -13.7869   -1.7072 C.ar        1 ZZL       0.0501
      9 C28         6.3555  -12.6020   -1.1208 C.ar        1 ZZL      -0.0388
     10 O01         9.7332   -6.9264    2.6417 O.co2       1 ZZL      -0.5638
     11 C02         8.4888   -6.5359    2.2934 C.2         1 ZZL       0.0552
     12 O03         7.6300   -6.1664    3.2709 O.co2       1 ZZL      -0.5638
     13 C04         8.0891   -6.5480    0.9451 C.ar        1 ZZL      -0.0018
     14 C05         6.7705   -6.9052    0.5789 C.ar        1 ZZL      -0.0573
     15 C06         6.3957   -6.9582   -0.7746 C.ar        1 ZZL      -0.0347
     16 C07         7.3236   -6.6207   -1.7794 C.ar        1 ZZL       0.0671
     17 N08         6.9668   -6.6414   -3.0846 N.pl3       1 ZZL      -0.2432
     18 C09         6.6928   -7.7616   -3.7836 C.ar        1 ZZL       0.2053
     19 N10         6.3653   -7.6486   -5.0919 N.ar        1 ZZL      -0.2577
     20 C11         6.1122   -8.7354   -5.8604 C.ar        1 ZZL       0.0185
     21 C12         6.1891  -10.0337   -5.3080 C.ar        1 ZZL       0.0154
     22 N14         7.0584  -12.0274   -6.1144 N.2         1 ZZL      -0.3323
     23 C16         8.8253  -13.4084   -5.5534 C.ar        1 ZZL       0.0838
     24 F18         8.0077  -13.8894   -7.7613 F           1 ZZL      -0.1759
     25 C19        10.0867  -14.7174   -7.2356 C.ar        1 ZZL      -0.0237
     26 F23         9.9799  -13.0541   -3.4793 F           1 ZZL      -0.1759
     27 C25         7.1913  -13.7928   -3.0620 C.ar        1 ZZL      -0.0267
     28 CL1         6.9216  -15.1921   -0.7737 Cl          1 ZZL      -0.0667
     29 C29         6.2563  -11.4359   -1.8891 C.ar        1 ZZL      -0.0425
     30 C30         6.6624  -11.4030   -3.2483 C.ar        1 ZZL       0.0182
     31 C31         6.5476  -10.1513   -3.9395 C.ar        1 ZZL       0.0633
     32 N32         6.7804   -9.0047   -3.2450 N.ar        1 ZZL      -0.2522
     33 C33         8.6309   -6.2363   -1.4238 C.ar        1 ZZL      -0.0347
     34 C34         9.0178   -6.2268   -0.0709 C.ar        1 ZZL      -0.0573
     35 H1          5.7011  -10.9747   -7.1636 H           1 ZZL       0.0550
     36 H2          5.0686  -11.7801   -5.7265 H           1 ZZL       0.0550
     37 H3         11.9372  -15.4874   -6.5909 H           1 ZZL       0.0651
     38 H4         11.7993  -14.5468   -4.3685 H           1 ZZL       0.0588
     39 H5          6.0882  -12.5814   -0.1355 H           1 ZZL       0.0679
     40 H6          6.0830   -7.1722    1.2879 H           1 ZZL       0.0621
     41 H7          5.4415   -7.2337   -1.0260 H           1 ZZL       0.0543
     42 H8          6.9959   -5.8007   -3.5612 H           1 ZZL       0.2170
     43 H9          5.8722   -8.5928   -6.8446 H           1 ZZL       0.0835
     44 H10        10.1587  -15.1054   -8.1793 H           1 ZZL       0.0588
     45 H11         7.5176  -14.6768   -3.4708 H           1 ZZL       0.0697
     46 H12         5.8886  -10.5993   -1.4346 H           1 ZZL       0.0662
     47 H13         9.3147   -5.9860   -2.1449 H           1 ZZL       0.0543
     48 H14         9.9807   -5.9674    0.1623 H           1 ZZL       0.0621
@<TRIPOS>BOND
     1    21     1   1
     2     1    22   1
     3     2     7   1
     4    22     2   2
     5     2    23   1
     6    23     3  ar
     7     3    24   1
     8     3    25  ar
     9     5     4  ar
    10    25     4  ar
    11     6     5  ar
    12    23     6  ar
    13     6    26   1
    14     7    27  ar
    15     7    30  ar
    16     8     9  ar
    17    27     8  ar
    18     8    28   1
    19     9    29  ar
    20    11    10  ar
    21    11    12  ar
    22    13    11   1
    23    14    13  ar
    24    13    34  ar
    25    15    14  ar
    26    16    15  ar
    27    17    16   1
    28    16    33  ar
    29    18    17   1
    30    19    18  ar
    31    18    32  ar
    32    20    19  ar
    33    20    21  ar
    34    21    31  ar
    35    29    30  ar
    36    30    31   1
    37    31    32  ar
    38    33    34  ar
    39     1    35   1
    40     1    36   1
    41     4    37   1
    42     5    38   1
    43     9    39   1
    44    14    40   1
    45    15    41   1
    46    17    42   1
    47    20    43   1
    48    25    44   1
    49    27    45   1
    50    29    46   1
    51    33    47   1
    52    34    48   1
@<TRIPOS>SUBSTRUCTURE
     1  ZZL      1

