@<TRIPOS>MOLECULE
2wtv_ligand_019
    48    52
SMALL
GAST_HUCK
****
This file was generated by PARSER (from files_GN.cpp)

@<TRIPOS>ATOM
      1 C13        13.7171  -12.7106   -2.2595 C.3         1 ZZL       0.0407
      2 C15        11.6152  -11.4958   -2.4314 C.2         1 ZZL       0.0550
      3 C17        11.4888   -9.3596   -3.5889 C.ar        1 ZZL       0.1522
      4 C20        10.3851   -7.4437   -2.5444 C.ar        1 ZZL      -0.0589
      5 C21        10.1094   -8.2264   -1.4111 C.ar        1 ZZL      -0.0237
      6 C22        10.5243   -9.5719   -1.3554 C.ar        1 ZZL       0.1522
      7 C24        10.7602  -12.6050   -2.6644 C.ar        1 ZZL       0.0251
      8 C26         8.5650  -13.6889   -2.2823 C.ar        1 ZZL       0.0501
      9 C28         8.9942  -14.8200   -2.9806 C.ar        1 ZZL      -0.0388
     10 O01        17.5205  -16.3184  -12.0607 O.co2       1 ZZL      -0.5638
     11 C02        17.5624  -16.6867  -10.7496 C.2         1 ZZL       0.0552
     12 O03        18.6558  -17.3939  -10.3403 O.co2       1 ZZL      -0.5638
     13 C04        16.5333  -16.3413   -9.8533 C.ar        1 ZZL      -0.0018
     14 C05        15.7890  -15.1580  -10.0443 C.ar        1 ZZL      -0.0573
     15 C06        14.7604  -14.8156   -9.1491 C.ar        1 ZZL      -0.0347
     16 C07        14.4469  -15.6472   -8.0544 C.ar        1 ZZL       0.0671
     17 N08        13.4279  -15.3414   -7.2196 N.pl3       1 ZZL      -0.2432
     18 C09        13.5598  -14.6982   -6.0391 C.ar        1 ZZL       0.2053
     19 N10        14.7355  -14.2153   -5.5643 N.ar        1 ZZL      -0.2577
     20 C11        14.8119  -13.5717   -4.3722 C.ar        1 ZZL       0.0185
     21 C12        13.6559  -13.3968   -3.5745 C.ar        1 ZZL       0.0154
     22 N14        12.8889  -11.6051   -2.2752 N.2         1 ZZL      -0.3323
     23 C16        11.1789  -10.1666   -2.4650 C.ar        1 ZZL       0.0838
     24 F18        12.1341   -9.8324   -4.6190 F           1 ZZL      -0.1759
     25 C19        11.1036   -8.0040   -3.6171 C.ar        1 ZZL      -0.0237
     26 F23        10.3110  -10.2365   -0.2510 F           1 ZZL      -0.1759
     27 C25         9.4371  -12.5983   -2.1381 C.ar        1 ZZL      -0.0267
     28 CL1         7.0172  -13.6614   -1.6018 Cl          1 ZZL      -0.0667
     29 C29        10.2728  -14.8574   -3.5439 C.ar        1 ZZL      -0.0425
     30 C30        11.1682  -13.7670   -3.4097 C.ar        1 ZZL       0.0182
     31 C31        12.4258  -13.8924   -4.0834 C.ar        1 ZZL       0.0633
     32 N32        12.4478  -14.5193   -5.2949 N.ar        1 ZZL      -0.2522
     33 C33        15.1825  -16.8381   -7.8744 C.ar        1 ZZL      -0.0347
     34 C34        16.2256  -17.1792   -8.7571 C.ar        1 ZZL      -0.0573
     35 H1         14.7295  -12.3574   -2.0439 H           1 ZZL       0.0550
     36 H2         13.4287  -13.3993   -1.4668 H           1 ZZL       0.0550
     37 H3         10.0761   -6.4724   -2.5872 H           1 ZZL       0.0651
     38 H4          9.6196   -7.8016   -0.6191 H           1 ZZL       0.0588
     39 H5          8.3696  -15.6299   -3.0951 H           1 ZZL       0.0679
     40 H6         15.9918  -14.5286  -10.8171 H           1 ZZL       0.0621
     41 H7         14.2265  -13.9446   -9.2978 H           1 ZZL       0.0543
     42 H8         12.5334  -15.6214   -7.4867 H           1 ZZL       0.2170
     43 H9         15.7161  -13.2105   -4.0663 H           1 ZZL       0.0835
     44 H10        11.3404   -7.4147   -4.4257 H           1 ZZL       0.0588
     45 H11         9.0916  -11.7849   -1.6026 H           1 ZZL       0.0697
     46 H12        10.5459  -15.7014   -4.0402 H           1 ZZL       0.0662
     47 H13        14.9534  -17.4713   -7.0964 H           1 ZZL       0.0543
     48 H14        16.7277  -18.0537   -8.6054 H           1 ZZL       0.0621
@<TRIPOS>BOND
     1    21     1   1
     2     1    22   1
     3     2     7   1
     4    22     2   2
     5     2    23   1
     6    23     3  ar
     7     3    24   1
     8     3    25  ar
     9     5     4  ar
    10    25     4  ar
    11     6     5  ar
    12    23     6  ar
    13     6    26   1
    14     7    27  ar
    15     7    30  ar
    16     8     9  ar
    17    27     8  ar
    18     8    28   1
    19     9    29  ar
    20    11    10  ar
    21    11    12  ar
    22    13    11   1
    23    14    13  ar
    24    13    34  ar
    25    15    14  ar
    26    16    15  ar
    27    17    16   1
    28    16    33  ar
    29    18    17   1
    30    19    18  ar
    31    18    32  ar
    32    20    19  ar
    33    20    21  ar
    34    21    31  ar
    35    29    30  ar
    36    30    31   1
    37    31    32  ar
    38    33    34  ar
    39     1    35   1
    40     1    36   1
    41     4    37   1
    42     5    38   1
    43     9    39   1
    44    14    40   1
    45    15    41   1
    46    17    42   1
    47    20    43   1
    48    25    44   1
    49    27    45   1
    50    29    46   1
    51    33    47   1
    52    34    48   1
@<TRIPOS>SUBSTRUCTURE
     1  ZZL      1

