@<TRIPOS>MOLECULE
2wtv_ligand_051
    48    52
SMALL
GAST_HUCK
****
This file was generated by PARSER (from files_GN.cpp)

@<TRIPOS>ATOM
      1 C13        12.2104  -15.1998   -4.9997 C.3         1 ZZL       0.0407
      2 C15        13.7365  -13.3271   -4.6478 C.2         1 ZZL       0.0550
      3 C17        15.1628  -11.4835   -5.4536 C.ar        1 ZZL       0.1522
      4 C20        17.5276  -11.8609   -5.9283 C.ar        1 ZZL      -0.0589
      5 C21        17.3754  -13.2142   -5.5892 C.ar        1 ZZL      -0.0237
      6 C22        16.1226  -13.7035   -5.1676 C.ar        1 ZZL       0.1522
      7 C24        12.9499  -12.6580   -3.6757 C.ar        1 ZZL       0.0251
      8 C26        12.9171  -11.3014   -1.6129 C.ar        1 ZZL       0.0501
      9 C28        11.5206  -11.1998   -1.6886 C.ar        1 ZZL      -0.0388
     10 O01         6.1730   -6.8997   -3.3514 O.co2       1 ZZL      -0.5638
     11 C02         5.6232   -7.4797   -4.4501 C.2         1 ZZL       0.0552
     12 O03         4.5454   -6.8714   -5.0082 O.co2       1 ZZL      -0.5638
     13 C04         6.1238   -8.6957   -4.9741 C.ar        1 ZZL      -0.0018
     14 C05         6.2231   -8.9020   -6.3680 C.ar        1 ZZL      -0.0573
     15 C06         6.7358  -10.1016   -6.8798 C.ar        1 ZZL      -0.0347
     16 C07         7.1679  -11.1304   -6.0203 C.ar        1 ZZL       0.0671
     17 N08         7.6715  -12.2819   -6.5632 N.pl3       1 ZZL      -0.2432
     18 C09         8.7661  -12.9725   -6.1636 C.ar        1 ZZL       0.2053
     19 N10         9.0560  -14.1569   -6.7639 N.ar        1 ZZL      -0.2577
     20 C11        10.1544  -14.8698   -6.4177 C.ar        1 ZZL       0.0185
     21 C12        11.0259  -14.4185   -5.4028 C.ar        1 ZZL       0.0154
     22 N14        13.3546  -14.4325   -5.1877 N.2         1 ZZL      -0.3323
     23 C16        14.9853  -12.8471   -5.0815 C.ar        1 ZZL       0.0838
     24 F18        14.1679  -10.6349   -5.4651 F           1 ZZL      -0.1759
     25 C19        16.4222  -10.9983   -5.8633 C.ar        1 ZZL      -0.0237
     26 F23        16.0656  -14.9662   -4.8335 F           1 ZZL      -0.1759
     27 C25        13.6136  -12.0301   -2.5895 C.ar        1 ZZL      -0.0267
     28 CL1        13.7467  -10.5523   -0.3419 Cl          1 ZZL      -0.0667
     29 C29        10.8324  -11.8355   -2.7347 C.ar        1 ZZL      -0.0425
     30 C30        11.5179  -12.5782   -3.7370 C.ar        1 ZZL       0.0182
     31 C31        10.7224  -13.1767   -4.7778 C.ar        1 ZZL       0.0633
     32 N32         9.6001  -12.5228   -5.1949 N.ar        1 ZZL      -0.2522
     33 C33         7.0134  -10.9495   -4.6232 C.ar        1 ZZL      -0.0347
     34 C34         6.5238   -9.7377   -4.1013 C.ar        1 ZZL      -0.0573
     35 H1         12.3104  -16.1111   -5.5952 H           1 ZZL       0.0550
     36 H2         12.1156  -15.4938   -3.9513 H           1 ZZL       0.0550
     37 H3         18.4406  -11.5072   -6.2290 H           1 ZZL       0.0651
     38 H4         18.1856  -13.8403   -5.6441 H           1 ZZL       0.0588
     39 H5         10.9970  -10.6719   -0.9850 H           1 ZZL       0.0679
     40 H6          5.9506   -8.1651   -7.0174 H           1 ZZL       0.0621
     41 H7          6.8126  -10.2127   -7.8905 H           1 ZZL       0.0543
     42 H8          7.2413  -12.6010   -7.3677 H           1 ZZL       0.2170
     43 H9         10.3351  -15.7421   -6.9019 H           1 ZZL       0.0835
     44 H10        16.5414  -10.0124   -6.1230 H           1 ZZL       0.0588
     45 H11        14.6230  -12.1041   -2.4977 H           1 ZZL       0.0697
     46 H12         9.8078  -11.7538   -2.7399 H           1 ZZL       0.0662
     47 H13         7.2458  -11.6980   -3.9662 H           1 ZZL       0.0543
     48 H14         6.4411   -9.6352   -3.0849 H           1 ZZL       0.0621
@<TRIPOS>BOND
     1    21     1   1
     2     1    22   1
     3     2     7   1
     4    22     2   2
     5     2    23   1
     6    23     3  ar
     7     3    24   1
     8     3    25  ar
     9     5     4  ar
    10    25     4  ar
    11     6     5  ar
    12    23     6  ar
    13     6    26   1
    14     7    27  ar
    15     7    30  ar
    16     8     9  ar
    17    27     8  ar
    18     8    28   1
    19     9    29  ar
    20    11    10  ar
    21    11    12  ar
    22    13    11   1
    23    14    13  ar
    24    13    34  ar
    25    15    14  ar
    26    16    15  ar
    27    17    16   1
    28    16    33  ar
    29    18    17   1
    30    19    18  ar
    31    18    32  ar
    32    20    19  ar
    33    20    21  ar
    34    21    31  ar
    35    29    30  ar
    36    30    31   1
    37    31    32  ar
    38    33    34  ar
    39     1    35   1
    40     1    36   1
    41     4    37   1
    42     5    38   1
    43     9    39   1
    44    14    40   1
    45    15    41   1
    46    17    42   1
    47    20    43   1
    48    25    44   1
    49    27    45   1
    50    29    46   1
    51    33    47   1
    52    34    48   1
@<TRIPOS>SUBSTRUCTURE
     1  ZZL      1

