@<TRIPOS>MOLECULE
2wtv_ligand_038
    48    52
SMALL
GAST_HUCK
****
This file was generated by PARSER (from files_GN.cpp)

@<TRIPOS>ATOM
      1 C13         4.1051   -7.5066   -1.6548 C.3         1 ZZL       0.0407
      2 C15         3.0503   -8.8227   -3.4197 C.2         1 ZZL       0.0550
      3 C17         2.4153   -9.4841   -5.7028 C.ar        1 ZZL       0.1522
      4 C20         0.5386   -8.4052   -6.8255 C.ar        1 ZZL      -0.0589
      5 C21         0.3462   -7.5744   -5.7118 C.ar        1 ZZL      -0.0237
      6 C22         1.1743   -7.7061   -4.5778 C.ar        1 ZZL       0.1522
      7 C24         3.5681  -10.0735   -3.0010 C.ar        1 ZZL       0.0251
      8 C26         3.1768  -12.4961   -2.7471 C.ar        1 ZZL       0.0501
      9 C28         4.4863  -12.6646   -2.2753 C.ar        1 ZZL      -0.0388
     10 O01        10.8915  -14.6427   -4.9890 O.co2       1 ZZL      -0.5638
     11 C02        11.4303  -13.9074   -3.9861 C.2         1 ZZL       0.0552
     12 O03        12.4719  -14.4572   -3.2941 O.co2       1 ZZL      -0.5638
     13 C04        10.9378  -12.6215   -3.6703 C.ar        1 ZZL      -0.0018
     14 C05        10.4471  -11.7669   -4.6853 C.ar        1 ZZL      -0.0573
     15 C06         9.9567  -10.4856   -4.3711 C.ar        1 ZZL      -0.0347
     16 C07         9.9337  -10.0373   -3.0290 C.ar        1 ZZL       0.0671
     17 N08         9.4687   -8.8011   -2.7048 N.pl3       1 ZZL      -0.2432
     18 C09         8.1633   -8.5188   -2.4865 C.ar        1 ZZL       0.2053
     19 N10         7.8293   -7.2655   -2.0870 N.ar        1 ZZL      -0.2577
     20 C11         6.5427   -6.9193   -1.8299 C.ar        1 ZZL       0.0185
     21 C12         5.5056   -7.8673   -1.9500 C.ar        1 ZZL       0.0154
     22 N14         3.3275   -7.7337   -2.7856 N.2         1 ZZL      -0.3323
     23 C16         2.2211   -8.6739   -4.5471 C.ar        1 ZZL       0.0838
     24 F18         3.3810  -10.3620   -5.8005 F           1 ZZL      -0.1759
     25 C19         1.5687   -9.3534   -6.8221 C.ar        1 ZZL      -0.0237
     26 F23         0.9087   -6.9158   -3.5675 F           1 ZZL      -0.1759
     27 C25         2.7213  -11.2129   -3.0876 C.ar        1 ZZL      -0.0267
     28 CL1         2.1422  -13.8309   -2.8733 Cl          1 ZZL      -0.0667
     29 C29         5.3303  -11.5526   -2.1534 C.ar        1 ZZL      -0.0425
     30 C30         4.9067  -10.2456   -2.5142 C.ar        1 ZZL       0.0182
     31 C31         5.8505   -9.1781   -2.3649 C.ar        1 ZZL       0.0633
     32 N32         7.1661   -9.4387   -2.6179 N.ar        1 ZZL      -0.2522
     33 C33        10.4230  -10.8915   -2.0172 C.ar        1 ZZL      -0.0347
     34 C34        10.9174  -12.1671   -2.3323 C.ar        1 ZZL      -0.0573
     35 H1          4.0010   -6.4541   -1.3822 H           1 ZZL       0.0550
     36 H2          3.7286   -8.1151   -0.8298 H           1 ZZL       0.0550
     37 H3         -0.0574   -8.3087   -7.6453 H           1 ZZL       0.0651
     38 H4         -0.4016   -6.8740   -5.7282 H           1 ZZL       0.0588
     39 H5          4.8294  -13.5912   -2.0119 H           1 ZZL       0.0679
     40 H6         10.4597  -12.0563   -5.6651 H           1 ZZL       0.0621
     41 H7          9.6174   -9.8788   -5.1243 H           1 ZZL       0.0543
     42 H8         10.1147   -8.1209   -2.4960 H           1 ZZL       0.2170
     43 H9          6.3479   -5.9539   -1.5494 H           1 ZZL       0.0835
     44 H10         1.7116   -9.9407   -7.6499 H           1 ZZL       0.0588
     45 H11         1.7541  -11.1154   -3.4033 H           1 ZZL       0.0697
     46 H12         6.2655  -11.7100   -1.7761 H           1 ZZL       0.0662
     47 H13        10.4011  -10.5918   -1.0338 H           1 ZZL       0.0543
     48 H14        11.2396  -12.7683   -1.5719 H           1 ZZL       0.0621
@<TRIPOS>BOND
     1    21     1   1
     2     1    22   1
     3     2     7   1
     4    22     2   2
     5     2    23   1
     6    23     3  ar
     7     3    24   1
     8     3    25  ar
     9     5     4  ar
    10    25     4  ar
    11     6     5  ar
    12    23     6  ar
    13     6    26   1
    14     7    27  ar
    15     7    30  ar
    16     8     9  ar
    17    27     8  ar
    18     8    28   1
    19     9    29  ar
    20    11    10  ar
    21    11    12  ar
    22    13    11   1
    23    14    13  ar
    24    13    34  ar
    25    15    14  ar
    26    16    15  ar
    27    17    16   1
    28    16    33  ar
    29    18    17   1
    30    19    18  ar
    31    18    32  ar
    32    20    19  ar
    33    20    21  ar
    34    21    31  ar
    35    29    30  ar
    36    30    31   1
    37    31    32  ar
    38    33    34  ar
    39     1    35   1
    40     1    36   1
    41     4    37   1
    42     5    38   1
    43     9    39   1
    44    14    40   1
    45    15    41   1
    46    17    42   1
    47    20    43   1
    48    25    44   1
    49    27    45   1
    50    29    46   1
    51    33    47   1
    52    34    48   1
@<TRIPOS>SUBSTRUCTURE
     1  ZZL      1

