@<TRIPOS>MOLECULE
2wtv_ligand_012
    48    52
SMALL
GAST_HUCK
****
This file was generated by PARSER (from files_GN.cpp)

@<TRIPOS>ATOM
      1 C13         4.8980  -11.9217   -1.6045 C.3         1 ZZL       0.0407
      2 C15         6.1759  -11.3866   -3.6125 C.2         1 ZZL       0.0550
      3 C17         6.4392  -10.8440   -6.0134 C.ar        1 ZZL       0.1522
      4 C20         6.2211   -8.5521   -6.7998 C.ar        1 ZZL      -0.0589
      5 C21         5.9784   -8.1275   -5.4868 C.ar        1 ZZL      -0.0237
      6 C22         5.9744   -9.0584   -4.4324 C.ar        1 ZZL       0.1522
      7 C24         7.0806  -12.4786   -3.5186 C.ar        1 ZZL       0.0251
      8 C26         9.3769  -13.3128   -3.8688 C.ar        1 ZZL       0.0501
      9 C28         8.9912  -14.5846   -3.4319 C.ar        1 ZZL      -0.0388
     10 O01         4.9953  -22.8890   -5.0141 O.co2       1 ZZL      -0.5638
     11 C02         5.2649  -21.6957   -5.5796 C.2         1 ZZL       0.0552
     12 O03         5.8986  -21.6848   -6.7755 O.co2       1 ZZL      -0.5638
     13 C04         4.7778  -20.5138   -4.9775 C.ar        1 ZZL      -0.0018
     14 C05         5.5269  -19.3181   -5.0295 C.ar        1 ZZL      -0.0573
     15 C06         5.0461  -18.1398   -4.4237 C.ar        1 ZZL      -0.0347
     16 C07         3.7993  -18.1248   -3.7476 C.ar        1 ZZL       0.0671
     17 N08         3.1989  -17.0520   -3.1425 N.pl3       1 ZZL      -0.2432
     18 C09         3.6605  -15.8277   -2.8028 C.ar        1 ZZL       0.2053
     19 N10         2.8123  -15.0108   -2.1246 N.ar        1 ZZL      -0.2577
     20 C11         3.1772  -13.7695   -1.7221 C.ar        1 ZZL       0.0185
     21 C12         4.4737  -13.2842   -2.0062 C.ar        1 ZZL       0.0154
     22 N14         5.2455  -11.2180   -2.7354 N.2         1 ZZL      -0.3323
     23 C16         6.2037  -10.4451   -4.6662 C.ar        1 ZZL       0.0838
     24 F18         6.6125  -12.0974   -6.3556 F           1 ZZL      -0.1759
     25 C19         6.4598   -9.9078   -7.0629 C.ar        1 ZZL      -0.0237
     26 F23         5.7740   -8.5741   -3.2274 F           1 ZZL      -0.1759
     27 C25         8.4367  -12.2709   -3.8895 C.ar        1 ZZL      -0.0267
     28 CL1        10.9734  -13.0400   -4.3612 Cl          1 ZZL      -0.0667
     29 C29         7.6699  -14.8154   -3.0326 C.ar        1 ZZL      -0.0425
     30 C30         6.6928  -13.7879   -3.0795 C.ar        1 ZZL       0.0182
     31 C31         5.3587  -14.1376   -2.7113 C.ar        1 ZZL       0.0633
     32 N32         4.9056  -15.3645   -3.0658 N.ar        1 ZZL      -0.2522
     33 C33         3.0543  -19.3244   -3.7091 C.ar        1 ZZL      -0.0347
     34 C34         3.5380  -20.5056   -4.2979 C.ar        1 ZZL      -0.0573
     35 H1          5.7461  -11.9725   -0.9141 H           1 ZZL       0.0550
     36 H2          4.0962  -11.3791   -1.1007 H           1 ZZL       0.0550
     37 H3          6.2369   -7.8680   -7.5654 H           1 ZZL       0.0651
     38 H4          5.8061   -7.1361   -5.3014 H           1 ZZL       0.0588
     39 H5          9.6678  -15.3531   -3.4057 H           1 ZZL       0.0679
     40 H6          6.4413  -19.3021   -5.4856 H           1 ZZL       0.0621
     41 H7          5.6176  -17.3038   -4.5062 H           1 ZZL       0.0543
     42 H8          2.2913  -17.2173   -2.8589 H           1 ZZL       0.2170
     43 H9          2.5047  -13.2013   -1.2115 H           1 ZZL       0.0835
     44 H10         6.6382  -10.2110   -8.0265 H           1 ZZL       0.0588
     45 H11         8.7460  -11.3478   -4.1985 H           1 ZZL       0.0697
     46 H12         7.4302  -15.7575   -2.7047 H           1 ZZL       0.0662
     47 H13         2.1464  -19.3514   -3.2373 H           1 ZZL       0.0543
     48 H14         2.9610  -21.3507   -4.2512 H           1 ZZL       0.0621
@<TRIPOS>BOND
     1    21     1   1
     2     1    22   1
     3     2     7   1
     4    22     2   2
     5     2    23   1
     6    23     3  ar
     7     3    24   1
     8     3    25  ar
     9     5     4  ar
    10    25     4  ar
    11     6     5  ar
    12    23     6  ar
    13     6    26   1
    14     7    27  ar
    15     7    30  ar
    16     8     9  ar
    17    27     8  ar
    18     8    28   1
    19     9    29  ar
    20    11    10  ar
    21    11    12  ar
    22    13    11   1
    23    14    13  ar
    24    13    34  ar
    25    15    14  ar
    26    16    15  ar
    27    17    16   1
    28    16    33  ar
    29    18    17   1
    30    19    18  ar
    31    18    32  ar
    32    20    19  ar
    33    20    21  ar
    34    21    31  ar
    35    29    30  ar
    36    30    31   1
    37    31    32  ar
    38    33    34  ar
    39     1    35   1
    40     1    36   1
    41     4    37   1
    42     5    38   1
    43     9    39   1
    44    14    40   1
    45    15    41   1
    46    17    42   1
    47    20    43   1
    48    25    44   1
    49    27    45   1
    50    29    46   1
    51    33    47   1
    52    34    48   1
@<TRIPOS>SUBSTRUCTURE
     1  ZZL      1

