@<TRIPOS>MOLECULE
2wtv_ligand_080
    48    52
SMALL
GAST_HUCK
****
This file was generated by PARSER (from files_GN.cpp)

@<TRIPOS>ATOM
      1 C13        17.5071  -13.1291   -4.8503 C.3         1 ZZL       0.0407
      2 C15        15.6652  -13.2780   -6.4287 C.2         1 ZZL       0.0550
      3 C17        15.2710  -15.2108   -7.9067 C.ar        1 ZZL       0.1522
      4 C20        13.0225  -16.1188   -8.1584 C.ar        1 ZZL      -0.0589
      5 C21        12.5359  -15.1601   -7.2560 C.ar        1 ZZL      -0.0237
      6 C22        13.4125  -14.2217   -6.6779 C.ar        1 ZZL       0.1522
      7 C24        15.5851  -11.8865   -6.7147 C.ar        1 ZZL       0.0251
      8 C26        15.1561  -10.1488   -8.4201 C.ar        1 ZZL       0.0501
      9 C28        15.3231   -9.1443   -7.4534 C.ar        1 ZZL      -0.0388
     10 O01        14.7821   -9.5894    5.2131 O.co2       1 ZZL      -0.5638
     11 C02        15.8441   -9.5064    4.3522 C.2         1 ZZL       0.0552
     12 O03        17.0737   -9.3265    4.9155 O.co2       1 ZZL      -0.5638
     13 C04        15.6448   -9.4900    2.9424 C.ar        1 ZZL      -0.0018
     14 C05        16.5187   -8.7989    2.0695 C.ar        1 ZZL      -0.0573
     15 C06        16.3167   -8.8401    0.6774 C.ar        1 ZZL      -0.0347
     16 C07        15.2338   -9.5511    0.1168 C.ar        1 ZZL       0.0671
     17 N08        15.0778   -9.5690   -1.2270 N.pl3       1 ZZL      -0.2432
     18 C09        15.6914  -10.4276   -2.0792 C.ar        1 ZZL       0.2053
     19 N10        16.5049  -11.4214   -1.6504 N.ar        1 ZZL      -0.2577
     20 C11        17.0849  -12.2896   -2.5046 C.ar        1 ZZL       0.0185
     21 C12        16.8876  -12.1713   -3.9014 C.ar        1 ZZL       0.0154
     22 N14        16.5257  -13.7567   -5.5986 N.2         1 ZZL      -0.3323
     23 C16        14.7971  -14.2221   -7.0005 C.ar        1 ZZL       0.0838
     24 F18        16.5324  -15.2703   -8.2620 F           1 ZZL      -0.1759
     25 C19        14.3878  -16.1476   -8.4795 C.ar        1 ZZL      -0.0237
     26 F23        12.9130  -13.3805   -5.8059 F           1 ZZL      -0.1759
     27 C25        15.2788  -11.5048   -8.0531 C.ar        1 ZZL      -0.0267
     28 CL1        14.8145   -9.7173  -10.0213 Cl          1 ZZL      -0.0667
     29 C29        15.6572   -9.5014   -6.1393 C.ar        1 ZZL      -0.0425
     30 C30        15.7753  -10.8569   -5.7342 C.ar        1 ZZL       0.0182
     31 C31        16.0513  -11.1169   -4.3541 C.ar        1 ZZL       0.0633
     32 N32        15.4957  -10.2970   -3.4198 N.ar        1 ZZL      -0.2522
     33 C33        14.3662  -10.2253    0.9947 C.ar        1 ZZL      -0.0347
     34 C34        14.5517  -10.1825    2.3841 C.ar        1 ZZL      -0.0573
     35 H1         18.0744  -13.9052   -4.3228 H           1 ZZL       0.0550
     36 H2         18.2064  -12.5987   -5.4989 H           1 ZZL       0.0550
     37 H3         12.3821  -16.7937   -8.5798 H           1 ZZL       0.0651
     38 H4         11.5455  -15.1537   -7.0134 H           1 ZZL       0.0588
     39 H5         15.2320   -8.1634   -7.7043 H           1 ZZL       0.0679
     40 H6         17.3317   -8.2737    2.4391 H           1 ZZL       0.0621
     41 H7         16.9927   -8.3324    0.0679 H           1 ZZL       0.0543
     42 H8         14.4506   -8.9438   -1.6136 H           1 ZZL       0.2170
     43 H9         17.6892  -13.0157   -2.1107 H           1 ZZL       0.0835
     44 H10        14.7351  -16.8527   -9.1316 H           1 ZZL       0.0588
     45 H11        15.1747  -12.2088   -8.7878 H           1 ZZL       0.0697
     46 H12        15.8044   -8.7460   -5.4680 H           1 ZZL       0.0662
     47 H13        13.6000  -10.7962    0.6153 H           1 ZZL       0.0543
     48 H14        13.9187  -10.7301    2.9748 H           1 ZZL       0.0621
@<TRIPOS>BOND
     1    21     1   1
     2     1    22   1
     3     2     7   1
     4    22     2   2
     5     2    23   1
     6    23     3  ar
     7     3    24   1
     8     3    25  ar
     9     5     4  ar
    10    25     4  ar
    11     6     5  ar
    12    23     6  ar
    13     6    26   1
    14     7    27  ar
    15     7    30  ar
    16     8     9  ar
    17    27     8  ar
    18     8    28   1
    19     9    29  ar
    20    11    10  ar
    21    11    12  ar
    22    13    11   1
    23    14    13  ar
    24    13    34  ar
    25    15    14  ar
    26    16    15  ar
    27    17    16   1
    28    16    33  ar
    29    18    17   1
    30    19    18  ar
    31    18    32  ar
    32    20    19  ar
    33    20    21  ar
    34    21    31  ar
    35    29    30  ar
    36    30    31   1
    37    31    32  ar
    38    33    34  ar
    39     1    35   1
    40     1    36   1
    41     4    37   1
    42     5    38   1
    43     9    39   1
    44    14    40   1
    45    15    41   1
    46    17    42   1
    47    20    43   1
    48    25    44   1
    49    27    45   1
    50    29    46   1
    51    33    47   1
    52    34    48   1
@<TRIPOS>SUBSTRUCTURE
     1  ZZL      1

