@<TRIPOS>MOLECULE
2wtv_ligand_036
    48    52
SMALL
GAST_HUCK
****
This file was generated by PARSER (from files_GN.cpp)

@<TRIPOS>ATOM
      1 C13         5.9627  -10.6277   -5.6188 C.3         1 ZZL       0.0407
      2 C15         3.7593  -10.9179   -4.6392 C.2         1 ZZL       0.0550
      3 C17         2.9907  -12.3776   -2.8431 C.ar        1 ZZL       0.1522
      4 C20         1.2928  -14.0730   -3.2890 C.ar        1 ZZL      -0.0589
      5 C21         1.2361  -13.6646   -4.6287 C.ar        1 ZZL      -0.0237
      6 C22         2.0520  -12.6146   -5.0847 C.ar        1 ZZL       0.1522
      7 C24         3.3743   -9.5559   -4.6038 C.ar        1 ZZL       0.0251
      8 C26         1.5641   -7.8923   -4.8748 C.ar        1 ZZL       0.0501
      9 C28         2.4790   -6.8506   -4.6680 C.ar        1 ZZL      -0.0388
     10 O01         5.3155   -3.2538    2.4573 O.co2       1 ZZL      -0.5638
     11 C02         6.0248   -2.9925    1.3492 C.2         1 ZZL       0.0552
     12 O03         6.4850   -1.7338    1.1681 O.co2       1 ZZL      -0.5638
     13 C04         6.5427   -4.0359    0.5609 C.ar        1 ZZL      -0.0018
     14 C05         6.1084   -4.1848   -0.7699 C.ar        1 ZZL      -0.0573
     15 C06         6.6044   -5.2465   -1.5577 C.ar        1 ZZL      -0.0347
     16 C07         7.5525   -6.1587   -1.0312 C.ar        1 ZZL       0.0671
     17 N08         8.1032   -7.1805   -1.7379 N.pl3       1 ZZL      -0.2432
     18 C09         7.5389   -7.9558   -2.6944 C.ar        1 ZZL       0.2053
     19 N10         8.3195   -8.9133   -3.2465 N.ar        1 ZZL      -0.2577
     20 C11         7.8430   -9.7643   -4.1834 C.ar        1 ZZL       0.0185
     21 C12         6.4997   -9.6860   -4.6122 C.ar        1 ZZL       0.0154
     22 N14         4.8917  -11.3318   -5.0829 N.2         1 ZZL      -0.3323
     23 C16         2.9321  -11.9492   -4.1944 C.ar        1 ZZL       0.0838
     24 F18         3.8063  -11.8231   -1.9842 F           1 ZZL      -0.1759
     25 C19         2.1721  -13.4372   -2.3974 C.ar        1 ZZL      -0.0237
     26 F23         1.9611  -12.2615   -6.3425 F           1 ZZL      -0.1759
     27 C25         2.0110   -9.2260   -4.8361 C.ar        1 ZZL      -0.0267
     28 CL1        -0.0608   -7.5410   -5.1870 Cl          1 ZZL      -0.0667
     29 C29         3.8257   -7.1471   -4.4082 C.ar        1 ZZL      -0.0425
     30 C30         4.2984   -8.4858   -4.3611 C.ar        1 ZZL       0.0182
     31 C31         5.6809   -8.6803   -4.0358 C.ar        1 ZZL       0.0633
     32 N32         6.2460   -7.8632   -3.0976 N.ar        1 ZZL      -0.2522
     33 C33         8.0064   -5.9634    0.2911 C.ar        1 ZZL      -0.0347
     34 C34         7.4881   -4.9334    1.0934 C.ar        1 ZZL      -0.0573
     35 H1          6.7147  -11.3587   -5.9265 H           1 ZZL       0.0550
     36 H2          5.6441  -10.0798   -6.5097 H           1 ZZL       0.0550
     37 H3          0.6942  -14.8367   -2.9572 H           1 ZZL       0.0651
     38 H4          0.5957  -14.1398   -5.2741 H           1 ZZL       0.0588
     39 H5          2.1705   -5.8762   -4.7004 H           1 ZZL       0.0679
     40 H6          5.4338   -3.5356   -1.1781 H           1 ZZL       0.0621
     41 H7          6.2855   -5.3290   -2.5203 H           1 ZZL       0.0543
     42 H8          8.9991   -7.4458   -1.4658 H           1 ZZL       0.2170
     43 H9          8.4765  -10.4653   -4.5675 H           1 ZZL       0.0835
     44 H10         2.2175  -13.7477   -1.4231 H           1 ZZL       0.0588
     45 H11         1.3202   -9.9590   -5.0105 H           1 ZZL       0.0697
     46 H12         4.4626   -6.3588   -4.2651 H           1 ZZL       0.0662
     47 H13         8.7229   -6.5804    0.6803 H           1 ZZL       0.0543
     48 H14         7.8261   -4.8310    2.0530 H           1 ZZL       0.0621
@<TRIPOS>BOND
     1    21     1   1
     2     1    22   1
     3     2     7   1
     4    22     2   2
     5     2    23   1
     6    23     3  ar
     7     3    24   1
     8     3    25  ar
     9     5     4  ar
    10    25     4  ar
    11     6     5  ar
    12    23     6  ar
    13     6    26   1
    14     7    27  ar
    15     7    30  ar
    16     8     9  ar
    17    27     8  ar
    18     8    28   1
    19     9    29  ar
    20    11    10  ar
    21    11    12  ar
    22    13    11   1
    23    14    13  ar
    24    13    34  ar
    25    15    14  ar
    26    16    15  ar
    27    17    16   1
    28    16    33  ar
    29    18    17   1
    30    19    18  ar
    31    18    32  ar
    32    20    19  ar
    33    20    21  ar
    34    21    31  ar
    35    29    30  ar
    36    30    31   1
    37    31    32  ar
    38    33    34  ar
    39     1    35   1
    40     1    36   1
    41     4    37   1
    42     5    38   1
    43     9    39   1
    44    14    40   1
    45    15    41   1
    46    17    42   1
    47    20    43   1
    48    25    44   1
    49    27    45   1
    50    29    46   1
    51    33    47   1
    52    34    48   1
@<TRIPOS>SUBSTRUCTURE
     1  ZZL      1

