@<TRIPOS>MOLECULE
2wtv_ligand_003
    48    52
SMALL
GAST_HUCK
****
This file was generated by PARSER (from files_GN.cpp)

@<TRIPOS>ATOM
      1 C13         7.9353   -4.0196   -0.0587 C.3         1 ZZL       0.0407
      2 C15         9.7080   -4.3399   -1.7017 C.2         1 ZZL       0.0550
      3 C17        11.9930   -3.4841   -2.0325 C.ar        1 ZZL       0.1522
      4 C20        12.4512   -1.9657   -3.8848 C.ar        1 ZZL      -0.0589
      5 C21        11.0897   -1.9748   -4.2290 C.ar        1 ZZL      -0.0237
      6 C22        10.1819   -2.7709   -3.5029 C.ar        1 ZZL       0.1522
      7 C24         9.5209   -5.7282   -1.9338 C.ar        1 ZZL       0.0251
      8 C26        10.5272   -7.9438   -2.4013 C.ar        1 ZZL       0.0501
      9 C28         9.2723   -8.5555   -2.2900 C.ar        1 ZZL      -0.0388
     10 O01         3.6029  -11.0417   -7.1351 O.co2       1 ZZL      -0.5638
     11 C02         2.6422  -10.2193   -6.6622 C.2         1 ZZL       0.0552
     12 O03         1.3896  -10.4565   -7.1100 O.co2       1 ZZL      -0.5638
     13 C04         2.9310   -9.1652   -5.7616 C.ar        1 ZZL      -0.0018
     14 C05         1.9125   -8.6109   -4.9558 C.ar        1 ZZL      -0.0573
     15 C06         2.1822   -7.5398   -4.0862 C.ar        1 ZZL      -0.0347
     16 C07         3.4815   -6.9959   -3.9785 C.ar        1 ZZL       0.0671
     17 N08         3.6208   -5.9349   -3.1229 N.pl3       1 ZZL      -0.2432
     18 C09         4.7022   -5.4933   -2.4390 C.ar        1 ZZL       0.2053
     19 N10         4.5256   -4.4407   -1.6047 N.ar        1 ZZL      -0.2577
     20 C11         5.5298   -3.9548   -0.8335 C.ar        1 ZZL       0.0185
     21 C12         6.8130   -4.5449   -0.8744 C.ar        1 ZZL       0.0154
     22 N14         8.9846   -3.6492   -0.8894 N.2         1 ZZL      -0.3323
     23 C16        10.6263   -3.5633   -2.4108 C.ar        1 ZZL       0.0838
     24 F18        12.4534   -4.0975   -0.9719 F           1 ZZL      -0.1759
     25 C19        12.9026   -2.7201   -2.7906 C.ar        1 ZZL      -0.0237
     26 F23         8.9247   -2.7474   -3.8684 F           1 ZZL      -0.1759
     27 C25        10.6404   -6.5504   -2.2342 C.ar        1 ZZL      -0.0267
     28 CL1        11.9019   -8.8775   -2.7225 Cl          1 ZZL      -0.0667
     29 C29         8.1396   -7.7696   -2.0450 C.ar        1 ZZL      -0.0425
     30 C30         8.2320   -6.3616   -1.8847 C.ar        1 ZZL       0.0182
     31 C31         6.9986   -5.6520   -1.7407 C.ar        1 ZZL       0.0633
     32 N32         5.9292   -6.0693   -2.4774 N.ar        1 ZZL      -0.2522
     33 C33         4.5016   -7.5426   -4.7899 C.ar        1 ZZL      -0.0347
     34 C34         4.2328   -8.6182   -5.6617 C.ar        1 ZZL      -0.0573
     35 H1          8.2717   -4.7812    0.6475 H           1 ZZL       0.0550
     36 H2          7.6348   -3.1404    0.5161 H           1 ZZL       0.0550
     37 H3         13.1123   -1.3970   -4.4206 H           1 ZZL       0.0651
     38 H4         10.7639   -1.4019   -5.0129 H           1 ZZL       0.0588
     39 H5          9.1695   -9.5679   -2.3985 H           1 ZZL       0.0679
     40 H6          0.9588   -8.9800   -4.9898 H           1 ZZL       0.0621
     41 H7          1.4185   -7.1665   -3.5169 H           1 ZZL       0.0543
     42 H8          2.7962   -5.4651   -2.9166 H           1 ZZL       0.2170
     43 H9          5.3324   -3.1661   -0.2162 H           1 ZZL       0.0835
     44 H10        13.8944   -2.6976   -2.5389 H           1 ZZL       0.0588
     45 H11        11.5736   -6.1493   -2.3202 H           1 ZZL       0.0697
     46 H12         7.2340   -8.2470   -1.9809 H           1 ZZL       0.0662
     47 H13         5.4410   -7.1435   -4.7899 H           1 ZZL       0.0543
     48 H14         4.9898   -8.9667   -6.2553 H           1 ZZL       0.0621
@<TRIPOS>BOND
     1    21     1   1
     2     1    22   1
     3     2     7   1
     4    22     2   2
     5     2    23   1
     6    23     3  ar
     7     3    24   1
     8     3    25  ar
     9     5     4  ar
    10    25     4  ar
    11     6     5  ar
    12    23     6  ar
    13     6    26   1
    14     7    27  ar
    15     7    30  ar
    16     8     9  ar
    17    27     8  ar
    18     8    28   1
    19     9    29  ar
    20    11    10  ar
    21    11    12  ar
    22    13    11   1
    23    14    13  ar
    24    13    34  ar
    25    15    14  ar
    26    16    15  ar
    27    17    16   1
    28    16    33  ar
    29    18    17   1
    30    19    18  ar
    31    18    32  ar
    32    20    19  ar
    33    20    21  ar
    34    21    31  ar
    35    29    30  ar
    36    30    31   1
    37    31    32  ar
    38    33    34  ar
    39     1    35   1
    40     1    36   1
    41     4    37   1
    42     5    38   1
    43     9    39   1
    44    14    40   1
    45    15    41   1
    46    17    42   1
    47    20    43   1
    48    25    44   1
    49    27    45   1
    50    29    46   1
    51    33    47   1
    52    34    48   1
@<TRIPOS>SUBSTRUCTURE
     1  ZZL      1

