@<TRIPOS>MOLECULE
2wtv_ligand_014
    48    52
SMALL
GAST_HUCK
****
This file was generated by PARSER (from files_GN.cpp)

@<TRIPOS>ATOM
      1 C13         4.6113   -8.8769   -1.0815 C.3         1 ZZL       0.0407
      2 C15         4.5538   -8.6454   -3.5084 C.2         1 ZZL       0.0550
      3 C17         5.4368   -8.2489   -5.7761 C.ar        1 ZZL       0.1522
      4 C20         6.4259  -10.0784   -7.0553 C.ar        1 ZZL      -0.0589
      5 C21         6.1815  -10.9524   -5.9839 C.ar        1 ZZL      -0.0237
      6 C22         5.5668  -10.4824   -4.8076 C.ar        1 ZZL       0.1522
      7 C24         3.4544   -7.7541   -3.5370 C.ar        1 ZZL       0.0251
      8 C26         1.3056   -7.1358   -4.5809 C.ar        1 ZZL       0.0501
      9 C28         1.1380   -6.1037   -3.6466 C.ar        1 ZZL      -0.0388
     10 O01         8.2330   -0.3605    4.9178 O.co2       1 ZZL      -0.5638
     11 C02         8.6822   -1.3028    4.0622 C.2         1 ZZL       0.0552
     12 O03         9.9448   -1.7506    4.2462 O.co2       1 ZZL      -0.5638
     13 C04         7.8517   -1.8344    3.0469 C.ar        1 ZZL      -0.0018
     14 C05         6.6112   -2.4362    3.3659 C.ar        1 ZZL      -0.0573
     15 C06         5.7919   -2.9809    2.3554 C.ar        1 ZZL      -0.0347
     16 C07         6.1901   -2.8995    1.0029 C.ar        1 ZZL       0.0671
     17 N08         5.4272   -3.4300    0.0136 N.pl3       1 ZZL      -0.2432
     18 C09         5.2377   -4.7539   -0.1778 C.ar        1 ZZL       0.2053
     19 N10         5.8018   -5.7184    0.5875 N.ar        1 ZZL      -0.2577
     20 C11         5.6039   -7.0309    0.3373 C.ar        1 ZZL       0.0185
     21 C12         4.7995   -7.4450   -0.7417 C.ar        1 ZZL       0.0154
     22 N14         5.0140   -9.1073   -2.3918 N.2         1 ZZL      -0.3323
     23 C16         5.1792   -9.1189   -4.6786 C.ar        1 ZZL       0.0838
     24 F18         5.1454   -6.9744   -5.7326 F           1 ZZL      -0.1759
     25 C19         6.0547   -8.7285   -6.9481 C.ar        1 ZZL      -0.0237
     26 F23         5.3434  -11.3602   -3.8617 F           1 ZZL      -0.1759
     27 C25         2.4600   -7.9367   -4.5311 C.ar        1 ZZL      -0.0267
     28 CL1         0.1172   -7.4232   -5.7497 Cl          1 ZZL      -0.0667
     29 C29         2.1169   -5.8812   -2.6699 C.ar        1 ZZL      -0.0425
     30 C30         3.2723   -6.7004   -2.5860 C.ar        1 ZZL       0.0182
     31 C31         4.1827   -6.4317   -1.5195 C.ar        1 ZZL       0.0633
     32 N32         4.4418   -5.1274   -1.2089 N.ar        1 ZZL      -0.2522
     33 C33         7.3993   -2.2574    0.6717 C.ar        1 ZZL      -0.0347
     34 C34         8.2327   -1.7488    1.6869 C.ar        1 ZZL      -0.0573
     35 H1          3.5617   -9.1524   -0.9666 H           1 ZZL       0.0550
     36 H2          5.1992   -9.5236   -0.4271 H           1 ZZL       0.0550
     37 H3          6.8724  -10.4229   -7.9078 H           1 ZZL       0.0651
     38 H4          6.4533  -11.9343   -6.0699 H           1 ZZL       0.0588
     39 H5          0.2977   -5.5207   -3.6594 H           1 ZZL       0.0679
     40 H6          6.2873   -2.4971    4.3351 H           1 ZZL       0.0621
     41 H7          4.9091   -3.4258    2.6129 H           1 ZZL       0.0543
     42 H8          5.0992   -2.8331   -0.6695 H           1 ZZL       0.2170
     43 H9          6.0510   -7.7164    0.9528 H           1 ZZL       0.0835
     44 H10         6.2398   -8.0954   -7.7298 H           1 ZZL       0.0588
     45 H11         2.5493   -8.6911   -5.2180 H           1 ZZL       0.0697
     46 H12         1.9567   -5.1309   -1.9927 H           1 ZZL       0.0662
     47 H13         7.6986   -2.1897   -0.3040 H           1 ZZL       0.0543
     48 H14         9.1109   -1.2967    1.4175 H           1 ZZL       0.0621
@<TRIPOS>BOND
     1    21     1   1
     2     1    22   1
     3     2     7   1
     4    22     2   2
     5     2    23   1
     6    23     3  ar
     7     3    24   1
     8     3    25  ar
     9     5     4  ar
    10    25     4  ar
    11     6     5  ar
    12    23     6  ar
    13     6    26   1
    14     7    27  ar
    15     7    30  ar
    16     8     9  ar
    17    27     8  ar
    18     8    28   1
    19     9    29  ar
    20    11    10  ar
    21    11    12  ar
    22    13    11   1
    23    14    13  ar
    24    13    34  ar
    25    15    14  ar
    26    16    15  ar
    27    17    16   1
    28    16    33  ar
    29    18    17   1
    30    19    18  ar
    31    18    32  ar
    32    20    19  ar
    33    20    21  ar
    34    21    31  ar
    35    29    30  ar
    36    30    31   1
    37    31    32  ar
    38    33    34  ar
    39     1    35   1
    40     1    36   1
    41     4    37   1
    42     5    38   1
    43     9    39   1
    44    14    40   1
    45    15    41   1
    46    17    42   1
    47    20    43   1
    48    25    44   1
    49    27    45   1
    50    29    46   1
    51    33    47   1
    52    34    48   1
@<TRIPOS>SUBSTRUCTURE
     1  ZZL      1

