@<TRIPOS>MOLECULE
2wtv_ligand_025
    48    52
SMALL
GAST_HUCK
****
This file was generated by PARSER (from files_GN.cpp)

@<TRIPOS>ATOM
      1 C13        12.1296  -12.6556   -3.8023 C.3         1 ZZL       0.0407
      2 C15        10.7134  -10.8397   -4.5967 C.2         1 ZZL       0.0550
      3 C17         8.4366  -10.2333   -5.2523 C.ar        1 ZZL       0.1522
      4 C20         7.0689   -8.8580   -3.7748 C.ar        1 ZZL      -0.0589
      5 C21         8.1103   -8.8364   -2.8319 C.ar        1 ZZL      -0.0237
      6 C22         9.3184   -9.5085   -3.0914 C.ar        1 ZZL       0.1522
      7 C24        11.4949  -10.4745   -5.7174 C.ar        1 ZZL       0.0251
      8 C26        12.3261   -8.6610   -7.1754 C.ar        1 ZZL       0.0501
      9 C28        12.9850   -9.6018   -7.9765 C.ar        1 ZZL      -0.0388
     10 O01        12.6626  -13.5706  -14.4167 O.co2       1 ZZL      -0.5638
     11 C02        11.7933  -14.4936  -13.9392 C.2         1 ZZL       0.0552
     12 O03        10.6686  -14.7415  -14.6576 O.co2       1 ZZL      -0.5638
     13 C04        11.8358  -14.7986  -12.5654 C.ar        1 ZZL      -0.0018
     14 C05        11.0833  -14.0578  -11.6304 C.ar        1 ZZL      -0.0573
     15 C06        11.1613  -14.3551  -10.2597 C.ar        1 ZZL      -0.0347
     16 C07        11.9687  -15.4223   -9.7898 C.ar        1 ZZL       0.0671
     17 N08        12.0147  -15.7973   -8.4739 N.pl3       1 ZZL      -0.2432
     18 C09        12.0103  -15.0020   -7.3757 C.ar        1 ZZL       0.2053
     19 N10        12.0618  -15.5912   -6.1577 N.ar        1 ZZL      -0.2577
     20 C11        12.1170  -14.8702   -5.0084 C.ar        1 ZZL       0.0185
     21 C12        12.1270  -13.4571   -5.0478 C.ar        1 ZZL       0.0154
     22 N14        11.0363  -11.7955   -3.7943 N.2         1 ZZL      -0.3323
     23 C16         9.5009  -10.2079   -4.3124 C.ar        1 ZZL       0.0838
     24 F18         8.5258  -10.8903   -6.3814 F           1 ZZL      -0.1759
     25 C19         7.2317   -9.5593   -4.9816 C.ar        1 ZZL      -0.0237
     26 F23        10.2673   -9.4302   -2.1934 F           1 ZZL      -0.1759
     27 C25        11.5957   -9.0948   -6.0572 C.ar        1 ZZL      -0.0267
     28 CL1        12.4020   -7.0208   -7.5709 Cl          1 ZZL      -0.0667
     29 C29        12.9137  -10.9667   -7.6545 C.ar        1 ZZL      -0.0425
     30 C30        12.1716  -11.4337   -6.5382 C.ar        1 ZZL       0.0182
     31 C31        12.1111  -12.8434   -6.3272 C.ar        1 ZZL       0.0633
     32 N32        12.0431  -13.6475   -7.4234 N.ar        1 ZZL      -0.2522
     33 C33        12.7089  -16.1681  -10.7394 C.ar        1 ZZL      -0.0347
     34 C34        12.6632  -15.8496  -12.1100 C.ar        1 ZZL      -0.0573
     35 H1         13.0588  -12.0870   -3.7277 H           1 ZZL       0.0550
     36 H2         12.0536  -13.2894   -2.9153 H           1 ZZL       0.0550
     37 H3          6.1925   -8.3653   -3.5824 H           1 ZZL       0.0651
     38 H4          7.9861   -8.3212   -1.9573 H           1 ZZL       0.0588
     39 H5         13.5241   -9.3046   -8.7953 H           1 ZZL       0.0679
     40 H6         10.5031  -13.2796  -11.9452 H           1 ZZL       0.0621
     41 H7         10.6005  -13.8018   -9.6148 H           1 ZZL       0.0543
     42 H8         12.1253  -16.7492   -8.3130 H           1 ZZL       0.2170
     43 H9         12.1504  -15.3751   -4.1172 H           1 ZZL       0.0835
     44 H10         6.4670   -9.5755   -5.6602 H           1 ZZL       0.0588
     45 H11        11.1290   -8.3873   -5.4831 H           1 ZZL       0.0697
     46 H12        13.4271  -11.6234   -8.2526 H           1 ZZL       0.0662
     47 H13        13.3041  -16.9356  -10.4234 H           1 ZZL       0.0543
     48 H14        13.2341  -16.4014  -12.7617 H           1 ZZL       0.0621
@<TRIPOS>BOND
     1    21     1   1
     2     1    22   1
     3     2     7   1
     4    22     2   2
     5     2    23   1
     6    23     3  ar
     7     3    24   1
     8     3    25  ar
     9     5     4  ar
    10    25     4  ar
    11     6     5  ar
    12    23     6  ar
    13     6    26   1
    14     7    27  ar
    15     7    30  ar
    16     8     9  ar
    17    27     8  ar
    18     8    28   1
    19     9    29  ar
    20    11    10  ar
    21    11    12  ar
    22    13    11   1
    23    14    13  ar
    24    13    34  ar
    25    15    14  ar
    26    16    15  ar
    27    17    16   1
    28    16    33  ar
    29    18    17   1
    30    19    18  ar
    31    18    32  ar
    32    20    19  ar
    33    20    21  ar
    34    21    31  ar
    35    29    30  ar
    36    30    31   1
    37    31    32  ar
    38    33    34  ar
    39     1    35   1
    40     1    36   1
    41     4    37   1
    42     5    38   1
    43     9    39   1
    44    14    40   1
    45    15    41   1
    46    17    42   1
    47    20    43   1
    48    25    44   1
    49    27    45   1
    50    29    46   1
    51    33    47   1
    52    34    48   1
@<TRIPOS>SUBSTRUCTURE
     1  ZZL      1

