@<TRIPOS>MOLECULE
2wtv_ligand_037
    48    52
SMALL
GAST_HUCK
****
This file was generated by PARSER (from files_GN.cpp)

@<TRIPOS>ATOM
      1 C13        12.6716   -4.7812    2.5293 C.3         1 ZZL       0.0407
      2 C15        11.6265   -4.3567    4.6735 C.2         1 ZZL       0.0550
      3 C17        12.7459   -3.3137    6.5866 C.ar        1 ZZL       0.1522
      4 C20        11.6317   -1.5172    7.8059 C.ar        1 ZZL      -0.0589
      5 C21        10.5360   -1.6028    6.9297 C.ar        1 ZZL      -0.0237
      6 C22        10.5300   -2.5535    5.8905 C.ar        1 ZZL       0.1522
      7 C24        10.7651   -5.4762    4.6878 C.ar        1 ZZL       0.0251
      8 C26         9.7341   -7.2738    6.0335 C.ar        1 ZZL       0.0501
      9 C28         9.0799   -7.7627    4.8947 C.ar        1 ZZL      -0.0388
     10 O01         2.5097   -7.4740    1.1448 O.co2       1 ZZL      -0.5638
     11 C02         2.7905   -6.3841    0.3990 C.2         1 ZZL       0.0552
     12 O03         1.7462   -5.6753   -0.0910 O.co2       1 ZZL      -0.5638
     13 C04         4.1264   -5.9839    0.1758 C.ar        1 ZZL      -0.0018
     14 C05         5.1865   -6.9234    0.2086 C.ar        1 ZZL      -0.0573
     15 C06         6.5119   -6.5156   -0.0363 C.ar        1 ZZL      -0.0347
     16 C07         6.7993   -5.1618   -0.3161 C.ar        1 ZZL       0.0671
     17 N08         8.0463   -4.7346   -0.6330 N.pl3       1 ZZL      -0.2432
     18 C09         9.1385   -4.8415    0.1512 C.ar        1 ZZL       0.2053
     19 N10        10.2813   -4.2913   -0.3170 N.ar        1 ZZL      -0.2577
     20 C11        11.4153   -4.2741    0.4166 C.ar        1 ZZL       0.0185
     21 C12        11.4348   -4.8250    1.7175 C.ar        1 ZZL       0.0154
     22 N14        12.4388   -4.0919    3.7103 N.2         1 ZZL      -0.3323
     23 C16        11.6379   -3.4195    5.7050 C.ar        1 ZZL       0.0838
     24 F18        13.7871   -4.0968    6.4678 F           1 ZZL      -0.1759
     25 C19        12.7326   -2.3743    7.6369 C.ar        1 ZZL      -0.0237
     26 F23         9.4909   -2.5968    5.0961 F           1 ZZL      -0.1759
     27 C25        10.5553   -6.1387    5.9291 C.ar        1 ZZL      -0.0267
     28 CL1         9.5618   -8.0683    7.5173 Cl          1 ZZL      -0.0667
     29 C29         9.2674   -7.1256    3.6569 C.ar        1 ZZL      -0.0425
     30 C30        10.1106   -5.9897    3.5192 C.ar        1 ZZL       0.0182
     31 C31        10.2351   -5.4060    2.2126 C.ar        1 ZZL       0.0633
     32 N32         9.1383   -5.3852    1.3996 N.ar        1 ZZL      -0.2522
     33 C33         5.7483   -4.2255   -0.3581 C.ar        1 ZZL      -0.0347
     34 C34         4.4269   -4.6317   -0.1080 C.ar        1 ZZL      -0.0573
     35 H1         13.4799   -4.2668    2.0050 H           1 ZZL       0.0550
     36 H2         13.0119   -5.7950    2.7477 H           1 ZZL       0.0550
     37 H3         11.6284   -0.8310    8.5634 H           1 ZZL       0.0651
     38 H4          9.7430   -0.9687    7.0520 H           1 ZZL       0.0588
     39 H5          8.4755   -8.5895    4.9611 H           1 ZZL       0.0679
     40 H6          4.9987   -7.9156    0.3801 H           1 ZZL       0.0621
     41 H7          7.2601   -7.2120   -0.0575 H           1 ZZL       0.0543
     42 H8          8.1330   -4.1792   -1.4246 H           1 ZZL       0.2170
     43 H9         12.2492   -3.8486    0.0064 H           1 ZZL       0.0835
     44 H10        13.5236   -2.3101    8.2826 H           1 ZZL       0.0588
     45 H11        11.0285   -5.8144    6.7773 H           1 ZZL       0.0697
     46 H12         8.7898   -7.5218    2.8449 H           1 ZZL       0.0662
     47 H13         5.9446   -3.2366   -0.5369 H           1 ZZL       0.0543
     48 H14         3.6896   -3.9232   -0.1039 H           1 ZZL       0.0621
@<TRIPOS>BOND
     1    21     1   1
     2     1    22   1
     3     2     7   1
     4    22     2   2
     5     2    23   1
     6    23     3  ar
     7     3    24   1
     8     3    25  ar
     9     5     4  ar
    10    25     4  ar
    11     6     5  ar
    12    23     6  ar
    13     6    26   1
    14     7    27  ar
    15     7    30  ar
    16     8     9  ar
    17    27     8  ar
    18     8    28   1
    19     9    29  ar
    20    11    10  ar
    21    11    12  ar
    22    13    11   1
    23    14    13  ar
    24    13    34  ar
    25    15    14  ar
    26    16    15  ar
    27    17    16   1
    28    16    33  ar
    29    18    17   1
    30    19    18  ar
    31    18    32  ar
    32    20    19  ar
    33    20    21  ar
    34    21    31  ar
    35    29    30  ar
    36    30    31   1
    37    31    32  ar
    38    33    34  ar
    39     1    35   1
    40     1    36   1
    41     4    37   1
    42     5    38   1
    43     9    39   1
    44    14    40   1
    45    15    41   1
    46    17    42   1
    47    20    43   1
    48    25    44   1
    49    27    45   1
    50    29    46   1
    51    33    47   1
    52    34    48   1
@<TRIPOS>SUBSTRUCTURE
     1  ZZL      1

