@<TRIPOS>MOLECULE
2wtv_ligand_094
    48    52
SMALL
GAST_HUCK
****
This file was generated by PARSER (from files_GN.cpp)

@<TRIPOS>ATOM
      1 C13         4.1725  -20.5569   -1.6277 C.3         1 ZZL       0.0407
      2 C15         4.6701  -18.9709   -3.3825 C.2         1 ZZL       0.0550
      3 C17         5.9330  -16.8771   -3.3158 C.ar        1 ZZL       0.1522
      4 C20         4.8135  -14.7780   -3.8550 C.ar        1 ZZL      -0.0589
      5 C21         3.6088  -15.4710   -4.0548 C.ar        1 ZZL      -0.0237
      6 C22         3.5651  -16.8702   -3.9005 C.ar        1 ZZL       0.1522
      7 C24         4.8226  -19.8978   -4.4399 C.ar        1 ZZL       0.0251
      8 C26         6.0824  -20.5549   -6.4565 C.ar        1 ZZL       0.0501
      9 C28         5.3448  -21.7421   -6.5425 C.ar        1 ZZL      -0.0388
     10 O01        -0.2482  -25.1415   -9.9860 O.co2       1 ZZL      -0.5638
     11 C02        -1.2533  -24.7961   -9.1477 C.2         1 ZZL       0.0552
     12 O03        -2.5170  -25.1702   -9.4533 O.co2       1 ZZL      -0.5638
     13 C04        -0.9519  -24.3778   -7.8434 C.ar        1 ZZL      -0.0018
     14 C05        -1.1730  -23.0382   -7.4595 C.ar        1 ZZL      -0.0573
     15 C06        -0.8915  -22.6196   -6.1477 C.ar        1 ZZL      -0.0347
     16 C07        -0.4107  -23.5436   -5.1952 C.ar        1 ZZL       0.0671
     17 N08        -0.2373  -23.1752   -3.9000 N.pl3       1 ZZL      -0.2432
     18 C09         0.8195  -22.4825   -3.4235 C.ar        1 ZZL       0.2053
     19 N10         0.8417  -22.2067   -2.0981 N.ar        1 ZZL      -0.2577
     20 C11         1.8770  -21.5529   -1.5190 C.ar        1 ZZL       0.0185
     21 C12         2.9989  -21.1788   -2.2829 C.ar        1 ZZL       0.0154
     22 N14         4.3865  -19.3065   -2.1747 N.2         1 ZZL      -0.3323
     23 C16         4.7351  -17.5945   -3.5613 C.ar        1 ZZL       0.0838
     24 F18         7.0195  -17.4869   -2.9234 F           1 ZZL      -0.1759
     25 C19         5.9705  -15.4774   -3.4728 C.ar        1 ZZL      -0.0237
     26 F23         2.4133  -17.4714   -4.0337 F           1 ZZL      -0.1759
     27 C25         5.8214  -19.6455   -5.4170 C.ar        1 ZZL      -0.0267
     28 CL1         7.2697  -20.2152   -7.6087 Cl          1 ZZL      -0.0667
     29 C29         4.3284  -21.9985   -5.6124 C.ar        1 ZZL      -0.0425
     30 C30         4.0423  -21.0950   -4.5582 C.ar        1 ZZL       0.0182
     31 C31         2.9678  -21.4370   -3.6768 C.ar        1 ZZL       0.0633
     32 N32         1.8742  -22.0787   -4.1818 N.ar        1 ZZL      -0.2522
     33 C33        -0.1890  -24.8840   -5.5770 C.ar        1 ZZL      -0.0347
     34 C34        -0.4418  -25.2960   -6.8990 C.ar        1 ZZL      -0.0573
     35 H1          5.0506  -21.1964   -1.7561 H           1 ZZL       0.0550
     36 H2          4.0164  -20.4160   -0.5574 H           1 ZZL       0.0550
     37 H3          4.8462  -13.7631   -3.9808 H           1 ZZL       0.0651
     38 H4          2.7612  -14.9526   -4.3008 H           1 ZZL       0.0588
     39 H5          5.5411  -22.4274   -7.2758 H           1 ZZL       0.0679
     40 H6         -1.5438  -22.3608   -8.1298 H           1 ZZL       0.0621
     41 H7         -1.0575  -21.6428   -5.8911 H           1 ZZL       0.0543
     42 H8         -0.8949  -23.4870   -3.2542 H           1 ZZL       0.2170
     43 H9          1.8446  -21.3645   -0.5146 H           1 ZZL       0.0835
     44 H10         6.8387  -14.9626   -3.3030 H           1 ZZL       0.0588
     45 H11         6.3844  -18.7920   -5.3744 H           1 ZZL       0.0697
     46 H12         3.8070  -22.8737   -5.7114 H           1 ZZL       0.0662
     47 H13         0.1685  -25.5641   -4.8955 H           1 ZZL       0.0543
     48 H14        -0.2696  -26.2722   -7.1548 H           1 ZZL       0.0621
@<TRIPOS>BOND
     1    21     1   1
     2     1    22   1
     3     2     7   1
     4    22     2   2
     5     2    23   1
     6    23     3  ar
     7     3    24   1
     8     3    25  ar
     9     5     4  ar
    10    25     4  ar
    11     6     5  ar
    12    23     6  ar
    13     6    26   1
    14     7    27  ar
    15     7    30  ar
    16     8     9  ar
    17    27     8  ar
    18     8    28   1
    19     9    29  ar
    20    11    10  ar
    21    11    12  ar
    22    13    11   1
    23    14    13  ar
    24    13    34  ar
    25    15    14  ar
    26    16    15  ar
    27    17    16   1
    28    16    33  ar
    29    18    17   1
    30    19    18  ar
    31    18    32  ar
    32    20    19  ar
    33    20    21  ar
    34    21    31  ar
    35    29    30  ar
    36    30    31   1
    37    31    32  ar
    38    33    34  ar
    39     1    35   1
    40     1    36   1
    41     4    37   1
    42     5    38   1
    43     9    39   1
    44    14    40   1
    45    15    41   1
    46    17    42   1
    47    20    43   1
    48    25    44   1
    49    27    45   1
    50    29    46   1
    51    33    47   1
    52    34    48   1
@<TRIPOS>SUBSTRUCTURE
     1  ZZL      1

