@<TRIPOS>MOLECULE
2wtv_ligand_068
    48    52
SMALL
GAST_HUCK
****
This file was generated by PARSER (from files_GN.cpp)

@<TRIPOS>ATOM
      1 C13         0.7337  -12.1381   -6.1664 C.3         1 ZZL       0.0407
      2 C15         1.2776  -10.1224   -4.9127 C.2         1 ZZL       0.0550
      3 C17         0.3720   -7.8710   -4.4721 C.ar        1 ZZL       0.1522
      4 C20        -0.6016   -7.3754   -2.2907 C.ar        1 ZZL      -0.0589
      5 C21        -0.4470   -8.7209   -1.9214 C.ar        1 ZZL      -0.0237
      6 C22         0.1815   -9.6289   -2.7949 C.ar        1 ZZL       0.1522
      7 C24         2.6806  -10.1251   -5.1364 C.ar        1 ZZL       0.0251
      8 C26         4.7409   -8.8190   -5.5687 C.ar        1 ZZL       0.0501
      9 C28         5.4853   -9.9979   -5.7019 C.ar        1 ZZL      -0.0388
     10 O01         2.9689  -21.9472   -3.7407 O.co2       1 ZZL      -0.5638
     11 C02         3.0887  -21.0912   -2.7041 C.2         1 ZZL       0.0552
     12 O03         2.7045  -21.5630   -1.4927 O.co2       1 ZZL      -0.5638
     13 C04         3.4600  -19.7363   -2.8967 C.ar        1 ZZL      -0.0018
     14 C05         3.2735  -18.7752   -1.8726 C.ar        1 ZZL      -0.0573
     15 C06         3.5690  -17.4197   -2.0938 C.ar        1 ZZL      -0.0347
     16 C07         4.0509  -16.9903   -3.3442 C.ar        1 ZZL       0.0671
     17 N08         4.2583  -15.6715   -3.5761 N.pl3       1 ZZL      -0.2432
     18 C09         3.3703  -14.8608   -4.1967 C.ar        1 ZZL       0.2053
     19 N10         2.1542  -15.2729   -4.6412 N.ar        1 ZZL      -0.2577
     20 C11         1.2949  -14.4241   -5.2575 C.ar        1 ZZL       0.0185
     21 C12         1.6508  -13.0714   -5.4719 C.ar        1 ZZL       0.0154
     22 N14         0.4867  -11.0309   -5.3671 N.2         1 ZZL      -0.3323
     23 C16         0.6396   -9.2076   -4.0718 C.ar        1 ZZL       0.0838
     24 F18         0.6201   -7.4530   -5.6847 F           1 ZZL      -0.1759
     25 C19        -0.1963   -6.9517   -3.5657 C.ar        1 ZZL      -0.0237
     26 F23         0.3165  -10.8664   -2.3876 F           1 ZZL      -0.1759
     27 C25         3.3685   -8.8870   -5.2699 C.ar        1 ZZL      -0.0267
     28 CL1         5.4906   -7.3181   -5.7746 Cl          1 ZZL      -0.0667
     29 C29         4.8481  -11.2356   -5.5188 C.ar        1 ZZL      -0.0425
     30 C30         3.4588  -11.3292   -5.2289 C.ar        1 ZZL       0.0182
     31 C31         2.9279  -12.6472   -5.0207 C.ar        1 ZZL       0.0633
     32 N32         3.7178  -13.5668   -4.3938 N.ar        1 ZZL      -0.2522
     33 C33         4.2922  -17.9428   -4.3548 C.ar        1 ZZL      -0.0347
     34 C34         4.0009  -19.3019   -4.1314 C.ar        1 ZZL      -0.0573
     35 H1         -0.2227  -12.6116   -6.3986 H           1 ZZL       0.0550
     36 H2          1.1766  -11.8143   -7.1084 H           1 ZZL       0.0550
     37 H3         -1.0478   -6.7152   -1.6481 H           1 ZZL       0.0651
     38 H4         -0.7997   -9.0357   -1.0134 H           1 ZZL       0.0588
     39 H5          6.4857   -9.9696   -5.9180 H           1 ZZL       0.0679
     40 H6          2.8870  -19.0455   -0.9635 H           1 ZZL       0.0621
     41 H7          3.3879  -16.7375   -1.3531 H           1 ZZL       0.0543
     42 H8          5.0797  -15.2754   -3.2460 H           1 ZZL       0.2170
     43 H9          0.3942  -14.7903   -5.5698 H           1 ZZL       0.0835
     44 H10        -0.3398   -5.9758   -3.8372 H           1 ZZL       0.0588
     45 H11         2.8712   -7.9985   -5.1721 H           1 ZZL       0.0697
     46 H12         5.4219  -12.0815   -5.6132 H           1 ZZL       0.0662
     47 H13         4.6612  -17.6474   -5.2618 H           1 ZZL       0.0543
     48 H14         4.1750  -19.9660   -4.8893 H           1 ZZL       0.0621
@<TRIPOS>BOND
     1    21     1   1
     2     1    22   1
     3     2     7   1
     4    22     2   2
     5     2    23   1
     6    23     3  ar
     7     3    24   1
     8     3    25  ar
     9     5     4  ar
    10    25     4  ar
    11     6     5  ar
    12    23     6  ar
    13     6    26   1
    14     7    27  ar
    15     7    30  ar
    16     8     9  ar
    17    27     8  ar
    18     8    28   1
    19     9    29  ar
    20    11    10  ar
    21    11    12  ar
    22    13    11   1
    23    14    13  ar
    24    13    34  ar
    25    15    14  ar
    26    16    15  ar
    27    17    16   1
    28    16    33  ar
    29    18    17   1
    30    19    18  ar
    31    18    32  ar
    32    20    19  ar
    33    20    21  ar
    34    21    31  ar
    35    29    30  ar
    36    30    31   1
    37    31    32  ar
    38    33    34  ar
    39     1    35   1
    40     1    36   1
    41     4    37   1
    42     5    38   1
    43     9    39   1
    44    14    40   1
    45    15    41   1
    46    17    42   1
    47    20    43   1
    48    25    44   1
    49    27    45   1
    50    29    46   1
    51    33    47   1
    52    34    48   1
@<TRIPOS>SUBSTRUCTURE
     1  ZZL      1

