@<TRIPOS>MOLECULE
2wtv_ligand_028
    48    52
SMALL
GAST_HUCK
****
This file was generated by PARSER (from files_GN.cpp)

@<TRIPOS>ATOM
      1 C13         2.6056   -6.1573   -0.0424 C.3         1 ZZL       0.0407
      2 C15         2.2716   -7.3802   -2.1166 C.2         1 ZZL       0.0550
      3 C17         1.9661   -7.8695   -4.5162 C.ar        1 ZZL       0.1522
      4 C20        -0.1645   -7.4265   -5.6156 C.ar        1 ZZL      -0.0589
      5 C21        -0.6936   -6.9704   -4.4006 C.ar        1 ZZL      -0.0237
      6 C22         0.1029   -6.9640   -3.2382 C.ar        1 ZZL       0.1522
      7 C24         3.3549   -8.2650   -1.9125 C.ar        1 ZZL       0.0251
      8 C26         4.2152  -10.5638   -2.1309 C.ar        1 ZZL       0.0501
      9 C28         5.4817  -10.1303   -1.7120 C.ar        1 ZZL      -0.0388
     10 O01        12.8940   -7.3379   -3.2665 O.co2       1 ZZL      -0.5638
     11 C02        12.2065   -6.3090   -3.8144 C.2         1 ZZL       0.0552
     12 O03        12.6993   -5.8057   -4.9718 O.co2       1 ZZL      -0.5638
     13 C04        11.0388   -5.7797   -3.2013 C.ar        1 ZZL      -0.0018
     14 C05        10.4776   -4.5576   -3.6409 C.ar        1 ZZL      -0.0573
     15 C06         9.3390   -4.0200   -3.0094 C.ar        1 ZZL      -0.0347
     16 C07         8.7160   -4.7070   -1.9506 C.ar        1 ZZL       0.0671
     17 N08         7.6588   -4.1102   -1.3342 N.pl3       1 ZZL      -0.2432
     18 C09         6.4843   -4.6776   -0.9946 C.ar        1 ZZL       0.2053
     19 N10         5.5806   -3.8944   -0.3571 N.ar        1 ZZL      -0.2577
     20 C11         4.3597   -4.3549   -0.0084 C.ar        1 ZZL       0.0185
     21 C12         3.9744   -5.6740   -0.3376 C.ar        1 ZZL       0.0154
     22 N14         1.9858   -6.4794   -1.2406 N.2         1 ZZL      -0.3323
     23 C16         1.4565   -7.4091   -3.2689 C.ar        1 ZZL       0.0838
     24 F18         3.2056   -8.2601   -4.6695 F           1 ZZL      -0.1759
     25 C19         1.1577   -7.8846   -5.6719 C.ar        1 ZZL      -0.0237
     26 F23        -0.4799   -6.5629   -2.1395 F           1 ZZL      -0.1759
     27 C25         3.1657   -9.6364   -2.2188 C.ar        1 ZZL      -0.0267
     28 CL1         3.9520  -12.1940   -2.5162 Cl          1 ZZL      -0.0667
     29 C29         5.6849   -8.7862   -1.3589 C.ar        1 ZZL      -0.0425
     30 C30         4.6359   -7.8366   -1.4315 C.ar        1 ZZL       0.0182
     31 C31         4.9159   -6.4913   -1.0223 C.ar        1 ZZL       0.0633
     32 N32         6.1367   -5.9548   -1.3079 N.ar        1 ZZL      -0.2522
     33 C33         9.2600   -5.9355   -1.5161 C.ar        1 ZZL      -0.0347
     34 C34        10.4135   -6.4611   -2.1308 C.ar        1 ZZL      -0.0573
     35 H1          1.9997   -5.3919    0.4438 H           1 ZZL       0.0550
     36 H2          2.6420   -7.0271    0.6179 H           1 ZZL       0.0550
     37 H3         -0.7406   -7.4296   -6.4589 H           1 ZZL       0.0651
     38 H4         -1.6616   -6.6457   -4.3646 H           1 ZZL       0.0588
     39 H5          6.2587  -10.7936   -1.6481 H           1 ZZL       0.0679
     40 H6         10.8904   -4.0314   -4.4146 H           1 ZZL       0.0621
     41 H7          8.9589   -3.1257   -3.3380 H           1 ZZL       0.0543
     42 H8          7.7238   -3.1574   -1.1948 H           1 ZZL       0.2170
     43 H9          3.7209   -3.7154    0.4678 H           1 ZZL       0.0835
     44 H10         1.5321   -8.2285   -6.5623 H           1 ZZL       0.0588
     45 H11         2.2443   -9.9734   -2.5232 H           1 ZZL       0.0697
     46 H12         6.6190   -8.5137   -1.0389 H           1 ZZL       0.0662
     47 H13         8.8454   -6.4434   -0.7329 H           1 ZZL       0.0543
     48 H14        10.7837   -7.3455   -1.7806 H           1 ZZL       0.0621
@<TRIPOS>BOND
     1    21     1   1
     2     1    22   1
     3     2     7   1
     4    22     2   2
     5     2    23   1
     6    23     3  ar
     7     3    24   1
     8     3    25  ar
     9     5     4  ar
    10    25     4  ar
    11     6     5  ar
    12    23     6  ar
    13     6    26   1
    14     7    27  ar
    15     7    30  ar
    16     8     9  ar
    17    27     8  ar
    18     8    28   1
    19     9    29  ar
    20    11    10  ar
    21    11    12  ar
    22    13    11   1
    23    14    13  ar
    24    13    34  ar
    25    15    14  ar
    26    16    15  ar
    27    17    16   1
    28    16    33  ar
    29    18    17   1
    30    19    18  ar
    31    18    32  ar
    32    20    19  ar
    33    20    21  ar
    34    21    31  ar
    35    29    30  ar
    36    30    31   1
    37    31    32  ar
    38    33    34  ar
    39     1    35   1
    40     1    36   1
    41     4    37   1
    42     5    38   1
    43     9    39   1
    44    14    40   1
    45    15    41   1
    46    17    42   1
    47    20    43   1
    48    25    44   1
    49    27    45   1
    50    29    46   1
    51    33    47   1
    52    34    48   1
@<TRIPOS>SUBSTRUCTURE
     1  ZZL      1

