@<TRIPOS>MOLECULE
2wtv_ligand_058
    48    52
SMALL
GAST_HUCK
****
This file was generated by PARSER (from files_GN.cpp)

@<TRIPOS>ATOM
      1 C13         4.6365   -5.9113    0.5315 C.3         1 ZZL       0.0407
      2 C15         3.8296   -6.7069   -1.6405 C.2         1 ZZL       0.0550
      3 C17         1.3541   -6.6902   -1.8900 C.ar        1 ZZL       0.1522
      4 C20         0.3372   -6.5936   -4.1013 C.ar        1 ZZL      -0.0589
      5 C21         1.6137   -6.5178   -4.6764 C.ar        1 ZZL      -0.0237
      6 C22         2.7642   -6.5360   -3.8663 C.ar        1 ZZL       0.1522
      7 C24         5.0391   -7.3403   -2.0318 C.ar        1 ZZL       0.0251
      8 C26         6.1372   -9.1949   -3.2429 C.ar        1 ZZL       0.0501
      9 C28         7.3942   -8.6291   -2.9889 C.ar        1 ZZL      -0.0388
     10 O01        12.7414   -4.2330   -6.4366 O.co2       1 ZZL      -0.5638
     11 C02        12.6714   -3.1791   -5.5900 C.2         1 ZZL       0.0552
     12 O03        13.5524   -2.1711   -5.8083 O.co2       1 ZZL      -0.5638
     13 C04        11.7182   -3.1272   -4.5368 C.ar        1 ZZL      -0.0018
     14 C05        11.6576   -2.0128   -3.6668 C.ar        1 ZZL      -0.0573
     15 C06        10.7166   -1.9589   -2.6241 C.ar        1 ZZL      -0.0347
     16 C07         9.7879   -3.0014   -2.4119 C.ar        1 ZZL       0.0671
     17 N08         8.9256   -2.8100   -1.3584 N.pl3       1 ZZL      -0.2432
     18 C09         7.8981   -3.5707   -0.9123 C.ar        1 ZZL       0.2053
     19 N10         7.1835   -3.1614    0.1673 N.ar        1 ZZL      -0.2577
     20 C11         6.1415   -3.8815    0.6647 C.ar        1 ZZL       0.0185
     21 C12         5.7787   -5.1051    0.0545 C.ar        1 ZZL       0.0154
     22 N14         3.7333   -6.0963   -0.5057 N.2         1 ZZL      -0.3323
     23 C16         2.6686   -6.6557   -2.4501 C.ar        1 ZZL       0.0838
     24 F18         1.1389   -6.7675   -0.6001 F           1 ZZL      -0.1759
     25 C19         0.2088   -6.6654   -2.7077 C.ar        1 ZZL      -0.0237
     26 F23         3.9116   -6.3966   -4.4838 F           1 ZZL      -0.1759
     27 C25         4.9778   -8.5629   -2.7559 C.ar        1 ZZL      -0.0267
     28 CL1         6.0356  -10.6393   -4.1290 Cl          1 ZZL      -0.0667
     29 C29         7.4861   -7.4542   -2.2341 C.ar        1 ZZL      -0.0425
     30 C30         6.3307   -6.7804   -1.7578 C.ar        1 ZZL       0.0182
     31 C31         6.5399   -5.5453   -1.0575 C.ar        1 ZZL       0.0633
     32 N32         7.5449   -4.7427   -1.4781 N.ar        1 ZZL      -0.2522
     33 C33         9.8457   -4.1142   -3.2912 C.ar        1 ZZL      -0.0347
     34 C34        10.7939   -4.1796   -4.3302 C.ar        1 ZZL      -0.0573
     35 H1          4.1044   -5.4100    1.3412 H           1 ZZL       0.0550
     36 H2          4.9772   -6.8844    0.9001 H           1 ZZL       0.0550
     37 H3         -0.4930   -6.5864   -4.6945 H           1 ZZL       0.0651
     38 H4          1.7024   -6.4409   -5.6926 H           1 ZZL       0.0588
     39 H5          8.2459   -9.0744   -3.3365 H           1 ZZL       0.0679
     40 H6         12.2941   -1.2211   -3.7837 H           1 ZZL       0.0621
     41 H7         10.7096   -1.1324   -2.0190 H           1 ZZL       0.0543
     42 H8          9.0870   -2.0077   -0.8416 H           1 ZZL       0.2170
     43 H9          5.6304   -3.5274    1.4784 H           1 ZZL       0.0835
     44 H10        -0.7268   -6.7076   -2.2921 H           1 ZZL       0.0588
     45 H11         4.0739   -9.0009   -2.9589 H           1 ZZL       0.0697
     46 H12         8.4201   -7.0936   -2.0328 H           1 ZZL       0.0662
     47 H13         9.2140   -4.9024   -3.2074 H           1 ZZL       0.0543
     48 H14        10.7917   -5.0041   -4.9443 H           1 ZZL       0.0621
@<TRIPOS>BOND
     1    21     1   1
     2     1    22   1
     3     2     7   1
     4    22     2   2
     5     2    23   1
     6    23     3  ar
     7     3    24   1
     8     3    25  ar
     9     5     4  ar
    10    25     4  ar
    11     6     5  ar
    12    23     6  ar
    13     6    26   1
    14     7    27  ar
    15     7    30  ar
    16     8     9  ar
    17    27     8  ar
    18     8    28   1
    19     9    29  ar
    20    11    10  ar
    21    11    12  ar
    22    13    11   1
    23    14    13  ar
    24    13    34  ar
    25    15    14  ar
    26    16    15  ar
    27    17    16   1
    28    16    33  ar
    29    18    17   1
    30    19    18  ar
    31    18    32  ar
    32    20    19  ar
    33    20    21  ar
    34    21    31  ar
    35    29    30  ar
    36    30    31   1
    37    31    32  ar
    38    33    34  ar
    39     1    35   1
    40     1    36   1
    41     4    37   1
    42     5    38   1
    43     9    39   1
    44    14    40   1
    45    15    41   1
    46    17    42   1
    47    20    43   1
    48    25    44   1
    49    27    45   1
    50    29    46   1
    51    33    47   1
    52    34    48   1
@<TRIPOS>SUBSTRUCTURE
     1  ZZL      1

