@<TRIPOS>MOLECULE
2wtv_ligand_076
    48    52
SMALL
GAST_HUCK
****
This file was generated by PARSER (from files_GN.cpp)

@<TRIPOS>ATOM
      1 C13         6.8952  -11.5002   -5.8208 C.3         1 ZZL       0.0407
      2 C15         6.9121  -10.5013   -3.6044 C.2         1 ZZL       0.0550
      3 C17         6.9496   -8.4843   -2.2044 C.ar        1 ZZL       0.1522
      4 C20         9.0597   -7.6582   -1.2973 C.ar        1 ZZL      -0.0589
      5 C21         9.7439   -8.7049   -1.9366 C.ar        1 ZZL      -0.0237
      6 C22         9.0372   -9.6412   -2.7161 C.ar        1 ZZL       0.1522
      7 C24         5.8122  -11.2255   -3.0810 C.ar        1 ZZL       0.0251
      8 C26         4.8134  -12.3558   -1.1215 C.ar        1 ZZL       0.0501
      9 C28         3.6573  -12.6354   -1.8612 C.ar        1 ZZL      -0.0388
     10 O01        -3.5629  -10.8816   -3.6090 O.co2       1 ZZL      -0.5638
     11 C02        -3.0442   -9.8245   -4.2797 C.2         1 ZZL       0.0552
     12 O03        -3.7431   -8.6637   -4.2745 O.co2       1 ZZL      -0.5638
     13 C04        -1.8228   -9.9335   -4.9753 C.ar        1 ZZL      -0.0018
     14 C05        -1.5036  -11.1073   -5.7006 C.ar        1 ZZL      -0.0573
     15 C06        -0.3287  -11.1727   -6.4713 C.ar        1 ZZL      -0.0347
     16 C07         0.5670  -10.0817   -6.4826 C.ar        1 ZZL       0.0671
     17 N08         1.6583  -10.1143   -7.2817 N.pl3       1 ZZL      -0.2432
     18 C09         2.9003  -10.4712   -6.8884 C.ar        1 ZZL       0.2053
     19 N10         3.8823  -10.5003   -7.8198 N.ar        1 ZZL      -0.2577
     20 C11         5.1556  -10.8308   -7.5049 C.ar        1 ZZL       0.0185
     21 C12         5.4981  -11.1681   -6.1776 C.ar        1 ZZL       0.0154
     22 N14         7.3351  -10.6568   -4.8114 N.2         1 ZZL      -0.3323
     23 C16         7.6235   -9.5538   -2.8554 C.ar        1 ZZL       0.0838
     24 F18         5.6564   -8.3177   -2.3115 F           1 ZZL      -0.1759
     25 C19         7.6661   -7.5451   -1.4360 C.ar        1 ZZL      -0.0237
     26 F23         9.7252  -10.6122   -3.2600 F           1 ZZL      -0.1759
     27 C25         5.8752  -11.6664   -1.7316 C.ar        1 ZZL      -0.0267
     28 CL1         4.9276  -12.8536    0.4923 Cl          1 ZZL      -0.0667
     29 C29         3.5770  -12.2366   -3.2039 C.ar        1 ZZL      -0.0425
     30 C30         4.6383  -11.5358   -3.8397 C.ar        1 ZZL       0.0182
     31 C31         4.4616  -11.1688   -5.2084 C.ar        1 ZZL       0.0633
     32 N32         3.2087  -10.8126   -5.6122 N.ar        1 ZZL      -0.2522
     33 C33         0.2802   -8.9258   -5.7301 C.ar        1 ZZL      -0.0347
     34 C34        -0.9104   -8.8493   -4.9881 C.ar        1 ZZL      -0.0573
     35 H1          7.5730  -11.3757   -6.6713 H           1 ZZL       0.0550
     36 H2          6.9644  -12.5387   -5.4862 H           1 ZZL       0.0550
     37 H3          9.5750   -6.9829   -0.7291 H           1 ZZL       0.0651
     38 H4         10.7571   -8.7876   -1.8228 H           1 ZZL       0.0588
     39 H5          2.8748  -13.1353   -1.4317 H           1 ZZL       0.0679
     40 H6         -2.1454  -11.9008   -5.7188 H           1 ZZL       0.0621
     41 H7         -0.1334  -12.0096   -7.0234 H           1 ZZL       0.0543
     42 H8          1.5315   -9.8987   -8.2145 H           1 ZZL       0.2170
     43 H9          5.8583  -10.8252   -8.2462 H           1 ZZL       0.0835
     44 H10         7.1756   -6.7769   -0.9711 H           1 ZZL       0.0588
     45 H11         6.7135  -11.4979   -1.1784 H           1 ZZL       0.0697
     46 H12         2.7257  -12.4822   -3.7167 H           1 ZZL       0.0662
     47 H13         0.9205   -8.1312   -5.7413 H           1 ZZL       0.0543
     48 H14        -1.1104   -7.9913   -4.4742 H           1 ZZL       0.0621
@<TRIPOS>BOND
     1    21     1   1
     2     1    22   1
     3     2     7   1
     4    22     2   2
     5     2    23   1
     6    23     3  ar
     7     3    24   1
     8     3    25  ar
     9     5     4  ar
    10    25     4  ar
    11     6     5  ar
    12    23     6  ar
    13     6    26   1
    14     7    27  ar
    15     7    30  ar
    16     8     9  ar
    17    27     8  ar
    18     8    28   1
    19     9    29  ar
    20    11    10  ar
    21    11    12  ar
    22    13    11   1
    23    14    13  ar
    24    13    34  ar
    25    15    14  ar
    26    16    15  ar
    27    17    16   1
    28    16    33  ar
    29    18    17   1
    30    19    18  ar
    31    18    32  ar
    32    20    19  ar
    33    20    21  ar
    34    21    31  ar
    35    29    30  ar
    36    30    31   1
    37    31    32  ar
    38    33    34  ar
    39     1    35   1
    40     1    36   1
    41     4    37   1
    42     5    38   1
    43     9    39   1
    44    14    40   1
    45    15    41   1
    46    17    42   1
    47    20    43   1
    48    25    44   1
    49    27    45   1
    50    29    46   1
    51    33    47   1
    52    34    48   1
@<TRIPOS>SUBSTRUCTURE
     1  ZZL      1

