@<TRIPOS>MOLECULE
2wtv_ligand_073
    48    52
SMALL
GAST_HUCK
****
This file was generated by PARSER (from files_GN.cpp)

@<TRIPOS>ATOM
      1 C13         6.7534  -12.9751   -0.9285 C.3         1 ZZL       0.0407
      2 C15         7.1345  -12.2689   -3.2155 C.2         1 ZZL       0.0550
      3 C17         8.4661  -10.3105   -3.8285 C.ar        1 ZZL       0.1522
      4 C20        10.1321  -10.4742   -5.6003 C.ar        1 ZZL      -0.0589
      5 C21         9.7950  -11.8241   -5.7943 C.ar        1 ZZL      -0.0237
      6 C22         8.7957  -12.4269   -5.0046 C.ar        1 ZZL       0.1522
      7 C24         5.8731  -12.6353   -3.7275 C.ar        1 ZZL       0.0251
      8 C26         3.9889  -12.0564   -5.2128 C.ar        1 ZZL       0.0501
      9 C28         3.3068  -13.2104   -4.8042 C.ar        1 ZZL      -0.0388
     10 O01         1.2840  -21.3236   -5.6067 O.co2       1 ZZL      -0.5638
     11 C02         2.6118  -21.1180   -5.7646 C.2         1 ZZL       0.0552
     12 O03         3.1623  -21.6329   -6.8883 O.co2       1 ZZL      -0.5638
     13 C04         3.3780  -20.3864   -4.8174 C.ar        1 ZZL      -0.0018
     14 C05         4.7719  -20.2038   -4.9972 C.ar        1 ZZL      -0.0573
     15 C06         5.5437  -19.5115   -4.0444 C.ar        1 ZZL      -0.0347
     16 C07         4.9312  -18.9580   -2.9013 C.ar        1 ZZL       0.0671
     17 N08         5.6796  -18.3955   -1.9222 N.pl3       1 ZZL      -0.2432
     18 C09         5.8876  -17.0720   -1.7352 C.ar        1 ZZL       0.2053
     19 N10         6.5921  -16.7086   -0.6400 N.ar        1 ZZL      -0.2577
     20 C11         6.8679  -15.4149   -0.3532 C.ar        1 ZZL       0.0185
     21 C12         6.4273  -14.3906   -1.2164 C.ar        1 ZZL       0.0154
     22 N14         7.4848  -12.4590   -1.9910 N.2         1 ZZL      -0.3323
     23 C16         8.1203  -11.6769   -4.0060 C.ar        1 ZZL       0.0838
     24 F18         7.8559   -9.5590   -2.9491 F           1 ZZL      -0.1759
     25 C19         9.4653   -9.7178   -4.6226 C.ar        1 ZZL      -0.0237
     26 F23         8.5396  -13.6951   -5.1974 F           1 ZZL      -0.1759
     27 C25         5.2591  -11.7791   -4.6817 C.ar        1 ZZL      -0.0267
     28 CL1         3.2782  -11.0033   -6.3315 Cl          1 ZZL      -0.0667
     29 C29         3.8984  -14.0864   -3.8827 C.ar        1 ZZL      -0.0425
     30 C30         5.1724  -13.8195   -3.3177 C.ar        1 ZZL       0.0182
     31 C31         5.6840  -14.7664   -2.3664 C.ar        1 ZZL       0.0633
     32 N32         5.4425  -16.0954   -2.5694 N.ar        1 ZZL      -0.2522
     33 C33         3.5450  -19.1130   -2.7204 C.ar        1 ZZL      -0.0347
     34 C34         2.7767  -19.8116   -3.6697 C.ar        1 ZZL      -0.0573
     35 H1          7.3616  -12.8742   -0.0301 H           1 ZZL       0.0550
     36 H2          5.8344  -12.4056   -0.7700 H           1 ZZL       0.0550
     37 H3         10.8618  -10.0396   -6.1700 H           1 ZZL       0.0651
     38 H4         10.2862  -12.3679   -6.5092 H           1 ZZL       0.0588
     39 H5          2.3791  -13.4235   -5.1786 H           1 ZZL       0.0679
     40 H6          5.2505  -20.5842   -5.8208 H           1 ZZL       0.0621
     41 H7          6.5538  -19.4253   -4.1810 H           1 ZZL       0.0543
     42 H8          6.0675  -19.0001   -1.2711 H           1 ZZL       0.2170
     43 H9          7.4008  -15.2056    0.4927 H           1 ZZL       0.0835
     44 H10         9.7104   -8.7328   -4.4941 H           1 ZZL       0.0588
     45 H11         5.7254  -10.9191   -4.9818 H           1 ZZL       0.0697
     46 H12         3.3684  -14.9173   -3.6085 H           1 ZZL       0.0662
     47 H13         3.0917  -18.7302   -1.8879 H           1 ZZL       0.0543
     48 H14         1.7721  -19.9065   -3.5051 H           1 ZZL       0.0621
@<TRIPOS>BOND
     1    21     1   1
     2     1    22   1
     3     2     7   1
     4    22     2   2
     5     2    23   1
     6    23     3  ar
     7     3    24   1
     8     3    25  ar
     9     5     4  ar
    10    25     4  ar
    11     6     5  ar
    12    23     6  ar
    13     6    26   1
    14     7    27  ar
    15     7    30  ar
    16     8     9  ar
    17    27     8  ar
    18     8    28   1
    19     9    29  ar
    20    11    10  ar
    21    11    12  ar
    22    13    11   1
    23    14    13  ar
    24    13    34  ar
    25    15    14  ar
    26    16    15  ar
    27    17    16   1
    28    16    33  ar
    29    18    17   1
    30    19    18  ar
    31    18    32  ar
    32    20    19  ar
    33    20    21  ar
    34    21    31  ar
    35    29    30  ar
    36    30    31   1
    37    31    32  ar
    38    33    34  ar
    39     1    35   1
    40     1    36   1
    41     4    37   1
    42     5    38   1
    43     9    39   1
    44    14    40   1
    45    15    41   1
    46    17    42   1
    47    20    43   1
    48    25    44   1
    49    27    45   1
    50    29    46   1
    51    33    47   1
    52    34    48   1
@<TRIPOS>SUBSTRUCTURE
     1  ZZL      1

