@<TRIPOS>MOLECULE
2wtv_ligand_087
    48    52
SMALL
GAST_HUCK
****
This file was generated by PARSER (from files_GN.cpp)

@<TRIPOS>ATOM
      1 C13         6.8255   -7.0022   -2.7315 C.3         1 ZZL       0.0407
      2 C15         7.6173   -9.2612   -3.2079 C.2         1 ZZL       0.0550
      3 C17         8.0511  -11.6265   -2.7091 C.ar        1 ZZL       0.1522
      4 C20        10.1131  -12.2984   -1.5916 C.ar        1 ZZL      -0.0589
      5 C21        10.5182  -10.9545   -1.5371 C.ar        1 ZZL      -0.0237
      6 C22         9.6979   -9.9433   -2.0749 C.ar        1 ZZL       0.1522
      7 C24         6.8965   -9.4591   -4.4142 C.ar        1 ZZL       0.0251
      8 C26         6.8106  -10.6498   -6.5690 C.ar        1 ZZL       0.0501
      9 C28         5.5298  -10.1456   -6.8160 C.ar        1 ZZL      -0.0388
     10 O01        -0.7950  -12.1927   -7.2809 O.co2       1 ZZL      -0.5638
     11 C02        -1.4029  -11.5582   -6.2427 C.2         1 ZZL       0.0552
     12 O03        -2.7488  -11.7209   -6.1492 O.co2       1 ZZL      -0.5638
     13 C04        -0.7204  -10.6551   -5.4120 C.ar        1 ZZL      -0.0018
     14 C05        -0.7717  -10.7882   -4.0030 C.ar        1 ZZL      -0.0573
     15 C06        -0.1011   -9.8883   -3.1651 C.ar        1 ZZL      -0.0347
     16 C07         0.6478   -8.8241   -3.7024 C.ar        1 ZZL       0.0671
     17 N08         1.2926   -7.9713   -2.8642 N.pl3       1 ZZL      -0.2432
     18 C09         2.6253   -7.7230   -2.8510 C.ar        1 ZZL       0.2053
     19 N10         3.1433   -6.8487   -1.9654 N.ar        1 ZZL      -0.2577
     20 C11         4.4756   -6.5991   -1.9075 C.ar        1 ZZL       0.0185
     21 C12         5.3705   -7.2649   -2.7787 C.ar        1 ZZL       0.0154
     22 N14         7.5428   -8.1726   -2.5139 N.2         1 ZZL      -0.3323
     23 C16         8.4426  -10.2609   -2.6655 C.ar        1 ZZL       0.0838
     24 F18         6.8947  -11.9903   -3.2082 F           1 ZZL      -0.1759
     25 C19         8.8816  -12.6353   -2.1735 C.ar        1 ZZL      -0.0237
     26 F23        10.1424   -8.7106   -2.0346 F           1 ZZL      -0.1759
     27 C25         7.5036  -10.2706   -5.4100 C.ar        1 ZZL      -0.0267
     28 CL1         7.4819  -11.7945   -7.6154 Cl          1 ZZL      -0.0667
     29 C29         4.9396   -9.2856   -5.8774 C.ar        1 ZZL      -0.0425
     30 C30         5.5760   -8.9493   -4.6565 C.ar        1 ZZL       0.0182
     31 C31         4.8276   -8.1894   -3.7041 C.ar        1 ZZL       0.0633
     32 N32         3.4813   -8.3656   -3.6759 N.ar        1 ZZL      -0.2522
     33 C33         0.6801   -8.6646   -5.1158 C.ar        1 ZZL      -0.0347
     34 C34         0.0248   -9.5781   -5.9572 C.ar        1 ZZL      -0.0573
     35 H1          7.0814   -6.3047   -1.9270 H           1 ZZL       0.0550
     36 H2          7.1373   -6.5468   -3.6752 H           1 ZZL       0.0550
     37 H3         10.7106  -13.0304   -1.2085 H           1 ZZL       0.0651
     38 H4         11.4175  -10.7193   -1.1115 H           1 ZZL       0.0588
     39 H5          5.0187  -10.4151   -7.6564 H           1 ZZL       0.0679
     40 H6         -1.2924  -11.5572   -3.5693 H           1 ZZL       0.0621
     41 H7         -0.1428  -10.0129   -2.1504 H           1 ZZL       0.0543
     42 H8          0.7641   -7.5670   -2.1518 H           1 ZZL       0.2170
     43 H9          4.8132   -5.9184   -1.2263 H           1 ZZL       0.0835
     44 H10         8.5861  -13.6134   -2.1995 H           1 ZZL       0.0588
     45 H11         8.4566  -10.6237   -5.2868 H           1 ZZL       0.0697
     46 H12         3.9993   -8.9367   -6.0995 H           1 ZZL       0.0662
     47 H13         1.1807   -7.8827   -5.5399 H           1 ZZL       0.0543
     48 H14         0.0730   -9.4421   -6.9724 H           1 ZZL       0.0621
@<TRIPOS>BOND
     1    21     1   1
     2     1    22   1
     3     2     7   1
     4    22     2   2
     5     2    23   1
     6    23     3  ar
     7     3    24   1
     8     3    25  ar
     9     5     4  ar
    10    25     4  ar
    11     6     5  ar
    12    23     6  ar
    13     6    26   1
    14     7    27  ar
    15     7    30  ar
    16     8     9  ar
    17    27     8  ar
    18     8    28   1
    19     9    29  ar
    20    11    10  ar
    21    11    12  ar
    22    13    11   1
    23    14    13  ar
    24    13    34  ar
    25    15    14  ar
    26    16    15  ar
    27    17    16   1
    28    16    33  ar
    29    18    17   1
    30    19    18  ar
    31    18    32  ar
    32    20    19  ar
    33    20    21  ar
    34    21    31  ar
    35    29    30  ar
    36    30    31   1
    37    31    32  ar
    38    33    34  ar
    39     1    35   1
    40     1    36   1
    41     4    37   1
    42     5    38   1
    43     9    39   1
    44    14    40   1
    45    15    41   1
    46    17    42   1
    47    20    43   1
    48    25    44   1
    49    27    45   1
    50    29    46   1
    51    33    47   1
    52    34    48   1
@<TRIPOS>SUBSTRUCTURE
     1  ZZL      1

