@<TRIPOS>MOLECULE
2x00_ligand_005
    84    88
SMALL
GAST_HUCK
****
This file was generated by PARSER (from files_GN.cpp)

@<TRIPOS>ATOM
      1 O6          4.2615   29.5124  -13.4645 O.2         1 GYN      -0.3700
      2 C5          4.8506   28.8523  -12.4405 C.2         1 GYN       0.2385
      3 O1          4.1636   28.0004  -11.6553 O.3         1 GYN      -0.2655
      4 C2          4.9511   27.3875  -10.6350 C.3         1 GYN       0.1059
      5 C3          6.3659   27.9998  -10.8595 C.3         1 GYN       0.0041
      6 C4          6.2782   28.8828  -12.1404 C.3         1 GYN       0.0613
      7 C7          6.8388   30.3176  -11.9688 C.3         1 GYN      -0.0438
      8 C8          4.3803   27.5396   -9.2631 C.2         1 GYN      -0.0559
      9 C13         4.8419   26.8340   -8.1814 C.2         1 GYN      -0.0876
     10 C14         6.1264   26.0954   -8.3215 C.3         1 GYN      -0.0498
     11 C12         4.2018   26.9454   -6.8240 C.3         1 GYN      -0.0250
     12 C27         2.6902   27.4711   -6.8189 C.3         1 GYN       0.0148
     13 C10         2.6954   28.7390   -7.7374 C.3         1 GYN      -0.0494
     14 C9          3.2363   28.4477   -9.1531 C.3         1 GYN      -0.0395
     15 C15         4.3315   25.6945   -6.0511 C.2         1 GYN      -0.1023
     16 C16         5.2017   25.3955   -5.0494 C.2         1 GYN      -0.0548
     17 C19         6.0509   26.4249   -4.4402 C.3         1 GYN      -0.0377
     18 C17         5.5156   23.9723   -4.7980 C.3         1 GYN       0.0804
     19 O20         6.8204   23.7598   -5.3405 O.3         1 GYN      -0.3807
     20 C18         5.4676   23.4432   -3.3321 C.3         1 GYN      -0.0158
     21 C21         4.0568   23.0790   -2.7899 C.3         1 GYN      -0.0223
     22 C43         3.1295   24.2759   -2.4562 C.3         1 GYN       0.0623
     23 C47         1.8463   23.8760   -1.7027 C.3         1 GYN      -0.0197
     24 C48         1.4087   25.2077   -1.0684 C.3         1 GYN      -0.0066
     25 C49         0.5507   25.0282    0.2115 C.3         1 GYN      -0.0582
     26 O43         3.7696   25.2363   -1.5995 O.3         1 GYN      -0.3622
     27 C37         2.7605   25.9592   -0.8617 C.3         1 GYN       0.0865
     28 C36         2.6776   27.3866   -1.2302 C.2         1 GYN      -0.0553
     29 C38         2.2127   28.3578   -0.2412 C.3         1 GYN      -0.0379
     30 C35         2.9048   27.7546   -2.5115 C.2         1 GYN      -0.1039
     31 C34         2.5758   29.0229   -3.1447 C.3         1 GYN      -0.0315
     32 C33         2.7843   29.0241   -4.6958 C.3         1 GYN       0.0100
     33 C32         2.2027   27.9033   -5.4702 C.2         1 GYN       0.0383
     34 N31         1.1419   27.3879   -4.9450 N.2         1 GYN      -0.2722
     35 C30         0.3289   26.3361   -5.3448 C.3         1 GYN       0.0432
     36 C46         0.9719   25.4824   -6.4550 C.3         1 GYN      -0.0375
     37 C28         1.6954   26.4056   -7.4673 C.3         1 GYN      -0.0530
     38 H1          4.9589   26.3250  -10.8968 H           1 GYN       0.0753
     39 H2          7.1049   27.2097  -11.0231 H           1 GYN       0.0338
     40 H3          6.6850   28.5735   -9.9801 H           1 GYN       0.0338
     41 H4          6.7950   28.3956  -12.9720 H           1 GYN       0.0553
     42 H5          6.7238   30.8773  -12.9021 H           1 GYN       0.0258
     43 H6          7.9027   30.2738  -11.7227 H           1 GYN       0.0258
     44 H7          6.3143   30.8511  -11.1717 H           1 GYN       0.0258
     45 H8          6.9331   26.8153   -8.5321 H           1 GYN       0.0329
     46 H9          6.0686   25.3636   -9.1366 H           1 GYN       0.0329
     47 H10         6.4268   25.5304   -7.4375 H           1 GYN       0.0329
     48 H11         4.8085   27.7126   -6.3448 H           1 GYN       0.0417
     49 H12         3.3290   29.5165   -7.3078 H           1 GYN       0.0226
     50 H13         1.6889   29.1607   -7.8206 H           1 GYN       0.0226
     51 H14         2.4198   28.0305   -9.7483 H           1 GYN       0.0362
     52 H15         3.5123   29.4131   -9.5887 H           1 GYN       0.0362
     53 H16         3.8539   24.9301   -6.4611 H           1 GYN       0.0252
     54 H17         6.6906   26.8843   -5.1952 H           1 GYN       0.0377
     55 H18         6.7123   26.0264   -3.6712 H           1 GYN       0.0377
     56 H19         5.4461   27.2028   -3.9775 H           1 GYN       0.0377
     57 H20         4.8667   23.3071   -5.3771 H           1 GYN       0.0742
     58 H21         6.8446   22.8128   -5.5948 H           1 GYN       0.2129
     59 H22         5.9601   24.1294   -2.6425 H           1 GYN       0.0312
     60 H23         6.0542   22.5198   -3.3073 H           1 GYN       0.0312
     61 H24         4.1997   22.4925   -1.8807 H           1 GYN       0.0293
     62 H25         3.5511   22.4336   -3.5127 H           1 GYN       0.0293
     63 H26         2.8481   24.7616   -3.3959 H           1 GYN       0.0598
     64 H27         2.0682   23.1335   -0.9303 H           1 GYN       0.0295
     65 H28         1.0839   23.4763   -2.3782 H           1 GYN       0.0295
     66 H29         0.7955   25.7376   -1.8072 H           1 GYN       0.0345
     67 H30         0.2223   26.0000    0.5837 H           1 GYN       0.0235
     68 H31         1.1196   24.5234    0.9948 H           1 GYN       0.0235
     69 H32        -0.3349   24.4302   -0.0092 H           1 GYN       0.0235
     70 H33         3.0791   25.8704    0.1816 H           1 GYN       0.0747
     71 H34         2.9432   29.1629   -0.1392 H           1 GYN       0.0376
     72 H35         2.0751   27.9118    0.7451 H           1 GYN       0.0376
     73 H36         1.2545   28.7824   -0.5456 H           1 GYN       0.0376
     74 H37         3.2555   27.0606   -3.1209 H           1 GYN       0.0245
     75 H38         3.1865   29.8151   -2.7026 H           1 GYN       0.0369
     76 H39         1.5270   29.2582   -2.9449 H           1 GYN       0.0369
     77 H40         3.8590   29.0754   -4.8657 H           1 GYN       0.0520
     78 H41         2.3610   29.9546   -5.0825 H           1 GYN       0.0520
     79 H42        -0.6210   26.7506   -5.6890 H           1 GYN       0.0507
     80 H43         0.1271   25.7046   -4.4764 H           1 GYN       0.0507
     81 H44         0.2008   24.8998   -6.9668 H           1 GYN       0.0277
     82 H45         1.6653   24.7751   -6.0012 H           1 GYN       0.0277
     83 H46         2.2114   25.7764   -8.1965 H           1 GYN       0.0210
     84 H47         0.9001   26.9219   -8.0134 H           1 GYN       0.0210
@<TRIPOS>BOND
     1     1     2   2
     2     2     3   1
     3     2     6   1
     4     3     4   1
     5     4     5   1
     6     4     8   1
     7     5     6   1
     8     6     7   1
     9     8     9   2
    10     8    14   1
    11     9    10   1
    12     9    11   1
    13    11    12   1
    14    11    15   1
    15    12    13   1
    16    12    33   1
    17    12    37   1
    18    13    14   1
    19    15    16   2
    20    16    17   1
    21    16    18   1
    22    18    19   1
    23    18    20   1
    24    20    21   1
    25    21    22   1
    26    22    23   1
    27    22    26   1
    28    23    24   1
    29    24    25   1
    30    24    27   1
    31    26    27   1
    32    27    28   1
    33    28    29   1
    34    28    30   2
    35    30    31   1
    36    31    32   1
    37    32    33   1
    38    33    34   2
    39    34    35   1
    40    35    36   1
    41    36    37   1
    42     4    38   1
    43     5    39   1
    44     5    40   1
    45     6    41   1
    46     7    42   1
    47     7    43   1
    48     7    44   1
    49    10    45   1
    50    10    46   1
    51    10    47   1
    52    11    48   1
    53    13    49   1
    54    13    50   1
    55    14    51   1
    56    14    52   1
    57    15    53   1
    58    17    54   1
    59    17    55   1
    60    17    56   1
    61    18    57   1
    62    19    58   1
    63    20    59   1
    64    20    60   1
    65    21    61   1
    66    21    62   1
    67    22    63   1
    68    23    64   1
    69    23    65   1
    70    24    66   1
    71    25    67   1
    72    25    68   1
    73    25    69   1
    74    27    70   1
    75    29    71   1
    76    29    72   1
    77    29    73   1
    78    30    74   1
    79    31    75   1
    80    31    76   1
    81    32    77   1
    82    32    78   1
    83    35    79   1
    84    35    80   1
    85    36    81   1
    86    36    82   1
    87    37    83   1
    88    37    84   1
@<TRIPOS>SUBSTRUCTURE
     1  GYN      2

