@<TRIPOS>MOLECULE
2x00_ligand_049
    84    88
SMALL
GAST_HUCK
****
This file was generated by PARSER (from files_GN.cpp)

@<TRIPOS>ATOM
      1 O6         10.2237   22.3131   -9.4038 O.2         1 GYN      -0.3700
      2 C5          9.4064   23.1065  -10.1268 C.2         1 GYN       0.2385
      3 O1          8.9526   24.2892   -9.6719 O.3         1 GYN      -0.2655
      4 C2          8.1845   25.0194  -10.6365 C.3         1 GYN       0.1059
      5 C3          8.2118   24.0846  -11.8873 C.3         1 GYN       0.0041
      6 C4          9.0157   22.8169  -11.5064 C.3         1 GYN       0.0613
      7 C7          8.2069   21.5030  -11.6249 C.3         1 GYN      -0.0438
      8 C8          6.8189   25.4114  -10.1979 C.2         1 GYN      -0.0559
      9 C13         6.1981   26.5517  -10.6347 C.2         1 GYN      -0.0876
     10 C14         6.7916   27.3123  -11.7561 C.3         1 GYN      -0.0498
     11 C12         4.8536   26.9814  -10.1203 C.3         1 GYN      -0.0250
     12 C27         4.3659   26.2565   -8.7748 C.3         1 GYN       0.0148
     13 C10         4.6551   24.7333   -9.0068 C.3         1 GYN      -0.0494
     14 C9          6.1464   24.4537   -9.3048 C.3         1 GYN      -0.0395
     15 C15         4.7615   28.4598  -10.0351 C.2         1 GYN      -0.1023
     16 C16         4.1045   29.3331  -10.8429 C.2         1 GYN      -0.0548
     17 C19         3.2081   28.8772  -11.9079 C.3         1 GYN      -0.0377
     18 C17         4.4075   30.7814  -10.7612 C.3         1 GYN       0.0804
     19 O20         5.0228   31.1857  -11.9879 O.3         1 GYN      -0.3807
     20 C18         3.2058   31.7251  -10.4261 C.3         1 GYN      -0.0158
     21 C21         2.9141   31.9343   -8.9122 C.3         1 GYN      -0.0223
     22 C43         2.1189   30.7876   -8.2308 C.3         1 GYN       0.0623
     23 C47         1.9962   30.9061   -6.6940 C.3         1 GYN      -0.0197
     24 C48         0.4924   30.6952   -6.3991 C.3         1 GYN      -0.0066
     25 C49        -0.2018   31.9922   -5.9004 C.3         1 GYN      -0.0582
     26 O43         0.7727   30.7870   -8.7307 O.3         1 GYN      -0.3622
     27 C37        -0.0890   30.1792   -7.7514 C.3         1 GYN       0.0865
     28 C36        -0.2419   28.7076   -7.8607 C.2         1 GYN      -0.0553
     29 C38        -1.1254   28.0318   -6.9062 C.3         1 GYN      -0.0379
     30 C35         0.3348   28.0230   -8.8750 C.2         1 GYN      -0.1039
     31 C34         0.3886   26.5820   -9.0716 C.3         1 GYN      -0.0315
     32 C33         1.8236   26.0654   -9.4013 C.3         1 GYN       0.0100
     33 C32         2.9012   26.3759   -8.4499 C.2         1 GYN       0.0383
     34 N31         2.5007   26.4684   -7.2228 N.2         1 GYN      -0.2722
     35 C30         3.1920   26.5492   -6.0176 C.3         1 GYN       0.0432
     36 C46         4.7008   26.2451   -6.1648 C.3         1 GYN      -0.0375
     37 C28         5.1859   26.7936   -7.5267 C.3         1 GYN      -0.0530
     38 H1          8.7844   25.9166  -10.8229 H           1 GYN       0.0753
     39 H2          8.7054   24.5955  -12.7192 H           1 GYN       0.0338
     40 H3          7.2015   23.8173  -12.2141 H           1 GYN       0.0338
     41 H4          9.9201   22.7406  -12.1185 H           1 GYN       0.0553
     42 H5          8.8157   20.6478  -11.3254 H           1 GYN       0.0258
     43 H6          7.8949   21.3548  -12.6607 H           1 GYN       0.0258
     44 H7          7.3158   21.5393  -10.9933 H           1 GYN       0.0258
     45 H8          6.1562   28.1002  -12.1479 H           1 GYN       0.0329
     46 H9          6.9941   26.6699  -12.6091 H           1 GYN       0.0329
     47 H10         7.7176   27.7879  -11.4356 H           1 GYN       0.0329
     48 H11         4.1960   26.6467  -10.9162 H           1 GYN       0.0417
     49 H12         4.0818   24.3774   -9.8674 H           1 GYN       0.0226
     50 H13         4.3399   24.1258   -8.1546 H           1 GYN       0.0226
     51 H14         6.6899   24.4099   -8.3580 H           1 GYN       0.0362
     52 H15         6.2020   23.4538   -9.7460 H           1 GYN       0.0362
     53 H16         5.4151   28.8642   -9.4068 H           1 GYN       0.0252
     54 H17         3.7164   28.1949  -12.5910 H           1 GYN       0.0377
     55 H18         2.8250   29.6979  -12.5118 H           1 GYN       0.0377
     56 H19         2.3480   28.3761  -11.4771 H           1 GYN       0.0377
     57 H20         5.1807   30.9824  -10.0153 H           1 GYN       0.0742
     58 H21         4.2968   31.3466  -12.6261 H           1 GYN       0.2129
     59 H22         2.2958   31.3946  -10.9300 H           1 GYN       0.0312
     60 H23         3.4444   32.7107  -10.8344 H           1 GYN       0.0312
     61 H24         2.3349   32.8569   -8.7985 H           1 GYN       0.0293
     62 H25         3.8595   32.0913   -8.3880 H           1 GYN       0.0293
     63 H26         2.5976   29.8337   -8.4664 H           1 GYN       0.0598
     64 H27         2.3539   31.8730   -6.3259 H           1 GYN       0.0295
     65 H28         2.5888   30.1258   -6.2057 H           1 GYN       0.0295
     66 H29         0.3865   29.9501   -5.6045 H           1 GYN       0.0345
     67 H30        -1.2580   31.7995   -5.7043 H           1 GYN       0.0235
     68 H31        -0.1214   32.7855   -6.6472 H           1 GYN       0.0235
     69 H32         0.2597   32.3358   -4.9725 H           1 GYN       0.0235
     70 H33        -1.0855   30.6013   -7.9240 H           1 GYN       0.0747
     71 H34        -1.8948   27.4667   -7.4380 H           1 GYN       0.0376
     72 H35        -1.6429   28.7325   -6.2470 H           1 GYN       0.0376
     73 H36        -0.5511   27.3474   -6.2792 H           1 GYN       0.0376
     74 H37         0.7636   28.5433   -9.6010 H           1 GYN       0.0245
     75 H38        -0.2615   26.3475   -9.9147 H           1 GYN       0.0369
     76 H39         0.0164   26.0285   -8.2097 H           1 GYN       0.0369
     77 H40         2.0666   26.4548  -10.3802 H           1 GYN       0.0520
     78 H41         1.7637   24.9799   -9.5103 H           1 GYN       0.0520
     79 H42         2.7535   25.8378   -5.3155 H           1 GYN       0.0507
     80 H43         3.0504   27.5515   -5.6085 H           1 GYN       0.0507
     81 H44         4.8732   25.1694   -6.1022 H           1 GYN       0.0277
     82 H45         5.2567   26.7193   -5.3517 H           1 GYN       0.0277
     83 H46         5.0661   27.8721   -7.4488 H           1 GYN       0.0210
     84 H47         6.2541   26.6014   -7.6268 H           1 GYN       0.0210
@<TRIPOS>BOND
     1     1     2   2
     2     2     3   1
     3     2     6   1
     4     3     4   1
     5     4     5   1
     6     4     8   1
     7     5     6   1
     8     6     7   1
     9     8     9   2
    10     8    14   1
    11     9    10   1
    12     9    11   1
    13    11    12   1
    14    11    15   1
    15    12    13   1
    16    12    33   1
    17    12    37   1
    18    13    14   1
    19    15    16   2
    20    16    17   1
    21    16    18   1
    22    18    19   1
    23    18    20   1
    24    20    21   1
    25    21    22   1
    26    22    23   1
    27    22    26   1
    28    23    24   1
    29    24    25   1
    30    24    27   1
    31    26    27   1
    32    27    28   1
    33    28    29   1
    34    28    30   2
    35    30    31   1
    36    31    32   1
    37    32    33   1
    38    33    34   2
    39    34    35   1
    40    35    36   1
    41    36    37   1
    42     4    38   1
    43     5    39   1
    44     5    40   1
    45     6    41   1
    46     7    42   1
    47     7    43   1
    48     7    44   1
    49    10    45   1
    50    10    46   1
    51    10    47   1
    52    11    48   1
    53    13    49   1
    54    13    50   1
    55    14    51   1
    56    14    52   1
    57    15    53   1
    58    17    54   1
    59    17    55   1
    60    17    56   1
    61    18    57   1
    62    19    58   1
    63    20    59   1
    64    20    60   1
    65    21    61   1
    66    21    62   1
    67    22    63   1
    68    23    64   1
    69    23    65   1
    70    24    66   1
    71    25    67   1
    72    25    68   1
    73    25    69   1
    74    27    70   1
    75    29    71   1
    76    29    72   1
    77    29    73   1
    78    30    74   1
    79    31    75   1
    80    31    76   1
    81    32    77   1
    82    32    78   1
    83    35    79   1
    84    35    80   1
    85    36    81   1
    86    36    82   1
    87    37    83   1
    88    37    84   1
@<TRIPOS>SUBSTRUCTURE
     1  GYN      2

