@<TRIPOS>MOLECULE
2x00_ligand_081
    84    88
SMALL
GAST_HUCK
****
This file was generated by PARSER (from files_GN.cpp)

@<TRIPOS>ATOM
      1 O6         -0.4137   26.5450    2.8444 O.2         1 GYN      -0.3700
      2 C5          0.7158   27.0884    2.3285 C.2         1 GYN       0.2385
      3 O1          0.7070   28.1044    1.4491 O.3         1 GYN      -0.2655
      4 C2          1.9969   28.4952    0.9793 C.3         1 GYN       0.1059
      5 C3          2.9342   27.6772    1.9210 C.3         1 GYN       0.0041
      6 C4          2.0642   26.6084    2.6265 C.3         1 GYN       0.0613
      7 C7          2.2906   25.1654    2.1206 C.3         1 GYN      -0.0438
      8 C8          2.3050   28.3329   -0.4713 C.2         1 GYN      -0.0559
      9 C13         1.5887   27.5873   -1.3618 C.2         1 GYN      -0.0876
     10 C14         0.1599   27.3284   -1.1389 C.3         1 GYN      -0.0498
     11 C12         2.1667   27.1292   -2.6710 C.3         1 GYN      -0.0250
     12 C27         3.6528   27.6312   -3.0275 C.3         1 GYN       0.0148
     13 C10         3.7477   29.0759   -2.4373 C.3         1 GYN      -0.0494
     14 C9          3.4837   29.0964   -0.9177 C.3         1 GYN      -0.0395
     15 C15         2.0411   25.6597   -2.7619 C.2         1 GYN      -0.1023
     16 C16         1.4217   24.8873   -3.6857 C.2         1 GYN      -0.0548
     17 C19         0.4596   25.4559   -4.6301 C.3         1 GYN      -0.0377
     18 C17         1.6063   23.4145   -3.6413 C.3         1 GYN       0.0804
     19 O20         0.3854   22.8576   -3.1596 O.3         1 GYN      -0.3807
     20 C18         2.0102   22.7303   -4.9872 C.3         1 GYN      -0.0158
     21 C21         3.5348   22.5889   -5.2939 C.3         1 GYN      -0.0223
     22 C43         4.1905   23.7497   -6.0793 C.3         1 GYN       0.0623
     23 C47         5.6146   23.4337   -6.5755 C.3         1 GYN      -0.0197
     24 C48         5.7938   24.4081   -7.7540 C.3         1 GYN      -0.0066
     25 C49         6.7027   23.8397   -8.8777 C.3         1 GYN      -0.0582
     26 O43         3.4735   24.0126   -7.2947 O.3         1 GYN      -0.3622
     27 C37         4.3344   24.7303   -8.2075 C.3         1 GYN       0.0865
     28 C36         4.0778   26.1814   -8.2856 C.2         1 GYN      -0.0553
     29 C38         4.6920   26.9340   -9.3842 C.3         1 GYN      -0.0379
     30 C35         3.3629   26.8024   -7.3283 C.2         1 GYN      -0.1039
     31 C34         3.4102   28.2158   -6.9922 C.3         1 GYN      -0.0315
     32 C33         3.1628   28.5050   -5.4739 C.3         1 GYN       0.0100
     33 C32         3.9839   27.7634   -4.4902 C.2         1 GYN       0.0383
     34 N31         5.1659   27.4826   -4.9197 N.2         1 GYN      -0.2722
     35 C30         6.3030   26.9871   -4.2786 C.3         1 GYN       0.0432
     36 C46         6.1850   27.0182   -2.7395 C.3         1 GYN      -0.0375
     37 C28         4.7343   26.6702   -2.3586 C.3         1 GYN      -0.0530
     38 H1          2.0605   29.5527    1.2390 H           1 GYN       0.0753
     39 H2          3.3441   28.3502    2.6762 H           1 GYN       0.0338
     40 H3          3.7790   27.2212    1.3951 H           1 GYN       0.0338
     41 H4          2.2335   26.6488    3.7036 H           1 GYN       0.0553
     42 H5          1.6135   24.4742    2.6094 H           1 GYN       0.0258
     43 H6          3.3049   24.8584    2.3420 H           1 GYN       0.0258
     44 H7          2.1374   25.1006    1.0468 H           1 GYN       0.0258
     45 H8         -0.3365   28.2311   -0.7818 H           1 GYN       0.0329
     46 H9          0.0350   26.5115   -0.4312 H           1 GYN       0.0329
     47 H10        -0.3579   27.0564   -2.0547 H           1 GYN       0.0329
     48 H11         1.4996   27.5849   -3.4042 H           1 GYN       0.0417
     49 H12         2.9962   29.7230   -2.9060 H           1 GYN       0.0226
     50 H13         4.7159   29.5327   -2.6348 H           1 GYN       0.0226
     51 H14         4.3631   28.7295   -0.4024 H           1 GYN       0.0362
     52 H15         3.3628   30.1421   -0.6335 H           1 GYN       0.0362
     53 H16         2.4907   25.1776   -2.0220 H           1 GYN       0.0252
     54 H17        -0.2895   26.0460   -4.1089 H           1 GYN       0.0377
     55 H18        -0.0884   24.6924   -5.1820 H           1 GYN       0.0377
     56 H19         0.9676   26.0920   -5.3470 H           1 GYN       0.0377
     57 H20         2.3537   23.1209   -2.8949 H           1 GYN       0.0742
     58 H21         0.5615   21.9134   -2.9889 H           1 GYN       0.2129
     59 H22         1.5160   23.2120   -5.8285 H           1 GYN       0.0312
     60 H23         1.6048   21.7164   -4.9617 H           1 GYN       0.0312
     61 H24         3.6539   21.6902   -5.9053 H           1 GYN       0.0293
     62 H25         4.0892   22.4246   -4.3689 H           1 GYN       0.0293
     63 H26         4.2037   24.6396   -5.4470 H           1 GYN       0.0598
     64 H27         5.6778   22.3965   -6.9226 H           1 GYN       0.0295
     65 H28         6.3608   23.5894   -5.7953 H           1 GYN       0.0295
     66 H29         6.2753   25.3096   -7.3663 H           1 GYN       0.0345
     67 H30         6.8016   24.5632   -9.6896 H           1 GYN       0.0235
     68 H31         6.2851   22.9146   -9.2854 H           1 GYN       0.0235
     69 H32         7.6957   23.6301   -8.4799 H           1 GYN       0.0235
     70 H33         4.1195   24.2831   -9.1858 H           1 GYN       0.0747
     71 H34         3.9738   27.6284   -9.8240 H           1 GYN       0.0376
     72 H35         5.0410   26.2820  -10.1876 H           1 GYN       0.0376
     73 H36         5.5486   27.4929   -9.0083 H           1 GYN       0.0376
     74 H37         2.8890   26.2411   -6.6689 H           1 GYN       0.0245
     75 H38         2.6598   28.7408   -7.5924 H           1 GYN       0.0369
     76 H39         4.3838   28.6379   -7.2511 H           1 GYN       0.0369
     77 H40         2.1024   28.3311   -5.3121 H           1 GYN       0.0520
     78 H41         3.3292   29.5698   -5.3075 H           1 GYN       0.0520
     79 H42         7.1778   27.5682   -4.5742 H           1 GYN       0.0507
     80 H43         6.4543   25.9638   -4.6187 H           1 GYN       0.0507
     81 H44         6.4484   28.0072   -2.3642 H           1 GYN       0.0277
     82 H45         6.8800   26.2973   -2.2949 H           1 GYN       0.0277
     83 H46         4.5992   25.6458   -2.7118 H           1 GYN       0.0210
     84 H47         4.6386   26.6346   -1.2722 H           1 GYN       0.0210
@<TRIPOS>BOND
     1     1     2   2
     2     2     3   1
     3     2     6   1
     4     3     4   1
     5     4     5   1
     6     4     8   1
     7     5     6   1
     8     6     7   1
     9     8     9   2
    10     8    14   1
    11     9    10   1
    12     9    11   1
    13    11    12   1
    14    11    15   1
    15    12    13   1
    16    12    33   1
    17    12    37   1
    18    13    14   1
    19    15    16   2
    20    16    17   1
    21    16    18   1
    22    18    19   1
    23    18    20   1
    24    20    21   1
    25    21    22   1
    26    22    23   1
    27    22    26   1
    28    23    24   1
    29    24    25   1
    30    24    27   1
    31    26    27   1
    32    27    28   1
    33    28    29   1
    34    28    30   2
    35    30    31   1
    36    31    32   1
    37    32    33   1
    38    33    34   2
    39    34    35   1
    40    35    36   1
    41    36    37   1
    42     4    38   1
    43     5    39   1
    44     5    40   1
    45     6    41   1
    46     7    42   1
    47     7    43   1
    48     7    44   1
    49    10    45   1
    50    10    46   1
    51    10    47   1
    52    11    48   1
    53    13    49   1
    54    13    50   1
    55    14    51   1
    56    14    52   1
    57    15    53   1
    58    17    54   1
    59    17    55   1
    60    17    56   1
    61    18    57   1
    62    19    58   1
    63    20    59   1
    64    20    60   1
    65    21    61   1
    66    21    62   1
    67    22    63   1
    68    23    64   1
    69    23    65   1
    70    24    66   1
    71    25    67   1
    72    25    68   1
    73    25    69   1
    74    27    70   1
    75    29    71   1
    76    29    72   1
    77    29    73   1
    78    30    74   1
    79    31    75   1
    80    31    76   1
    81    32    77   1
    82    32    78   1
    83    35    79   1
    84    35    80   1
    85    36    81   1
    86    36    82   1
    87    37    83   1
    88    37    84   1
@<TRIPOS>SUBSTRUCTURE
     1  GYN      2

