@<TRIPOS>MOLECULE
2x00_ligand_035
    84    88
SMALL
GAST_HUCK
****
This file was generated by PARSER (from files_GN.cpp)

@<TRIPOS>ATOM
      1 O6          9.3869   22.9522  -22.9080 O.2         1 GYN      -0.3700
      2 C5          9.8086   22.6776  -21.6528 C.2         1 GYN       0.2385
      3 O1          8.9844   22.7214  -20.5870 O.3         1 GYN      -0.2655
      4 C2          9.6146   22.3663  -19.3532 C.3         1 GYN       0.1059
      5 C3         11.0830   22.0630  -19.7791 C.3         1 GYN       0.0041
      6 C4         11.1681   22.2438  -21.3164 C.3         1 GYN       0.0613
      7 C7         12.2454   23.2565  -21.7794 C.3         1 GYN      -0.0438
      8 C8          9.4424   23.3564  -18.2628 C.2         1 GYN      -0.0559
      9 C13         9.7025   23.0699  -16.9479 C.2         1 GYN      -0.0876
     10 C14        10.5471   21.8923  -16.6348 C.3         1 GYN      -0.0498
     11 C12         9.2989   23.9762  -15.8174 C.3         1 GYN      -0.0250
     12 C27         8.3442   25.2006  -16.2274 C.3         1 GYN       0.0148
     13 C10         8.9267   25.7488  -17.5754 C.3         1 GYN      -0.0494
     14 C9          8.9556   24.6734  -18.6750 C.3         1 GYN      -0.0395
     15 C15         8.7710   23.1617  -14.6891 C.2         1 GYN      -0.1023
     16 C16         9.3708   22.8242  -13.5148 C.2         1 GYN      -0.0548
     17 C19        10.6050   23.4772  -13.0734 C.3         1 GYN      -0.0377
     18 C17         8.9209   21.6164  -12.7830 C.3         1 GYN       0.0804
     19 O20         9.9545   20.6424  -12.9418 O.3         1 GYN      -0.3807
     20 C18         8.6183   21.7313  -11.2552 C.3         1 GYN      -0.0158
     21 C21         7.2373   22.3228  -10.8625 C.3         1 GYN      -0.0223
     22 C43         7.0540   23.8265  -11.1702 C.3         1 GYN       0.0623
     23 C47         5.7190   24.4095  -10.6737 C.3         1 GYN      -0.0197
     24 C48         6.0234   25.9174  -10.6663 C.3         1 GYN      -0.0066
     25 C49         5.1289   26.7358   -9.6988 C.3         1 GYN      -0.0582
     26 O43         8.0643   24.6234  -10.5328 O.3         1 GYN      -0.3622
     27 C37         7.5443   25.9518  -10.3260 C.3         1 GYN       0.0865
     28 C36         8.2981   26.9697  -11.0813 C.2         1 GYN      -0.0553
     29 C38         8.6318   28.2439  -10.4518 C.3         1 GYN      -0.0379
     30 C35         8.6204   26.7256  -12.3700 C.2         1 GYN      -0.1039
     31 C34         9.2819   27.6317  -13.2967 C.3         1 GYN      -0.0315
     32 C33         9.4878   27.0516  -14.7316 C.3         1 GYN       0.0100
     33 C32         8.3137   26.3984  -15.3286 C.2         1 GYN       0.0383
     34 N31         7.2512   27.1301  -15.2570 N.2         1 GYN      -0.2722
     35 C30         5.9749   26.9731  -15.7920 C.3         1 GYN       0.0432
     36 C46         5.8540   25.8005  -16.7954 C.3         1 GYN      -0.0375
     37 C28         6.8495   24.6859  -16.4024 C.3         1 GYN      -0.0530
     38 H1          9.1173   21.4436  -19.0628 H           1 GYN       0.0753
     39 H2         11.3465   21.0344  -19.5158 H           1 GYN       0.0338
     40 H3         11.7917   22.7274  -19.2760 H           1 GYN       0.0338
     41 H4         11.3475   21.2803  -21.7994 H           1 GYN       0.0553
     42 H5         12.2323   23.3460  -22.8657 H           1 GYN       0.0258
     43 H6         13.2323   22.9085  -21.4730 H           1 GYN       0.0258
     44 H7         12.0703   24.2418  -21.3394 H           1 GYN       0.0258
     45 H8         11.5170   21.9718  -17.1319 H           1 GYN       0.0329
     46 H9         10.0568   20.9651  -16.9432 H           1 GYN       0.0329
     47 H10        10.7747   21.7812  -15.5768 H           1 GYN       0.0329
     48 H11        10.2539   24.4034  -15.5256 H           1 GYN       0.0417
     49 H12         9.9543   26.0945  -17.4187 H           1 GYN       0.0226
     50 H13         8.3608   26.6091  -17.9442 H           1 GYN       0.0226
     51 H14         7.9488   24.5652  -19.0831 H           1 GYN       0.0362
     52 H15         9.5938   25.0508  -19.4765 H           1 GYN       0.0362
     53 H16         7.9517   22.6473  -14.9192 H           1 GYN       0.0252
     54 H17        11.3867   23.3927  -13.8300 H           1 GYN       0.0377
     55 H18        11.0138   23.0334  -12.1660 H           1 GYN       0.0377
     56 H19        10.4161   24.5301  -12.8694 H           1 GYN       0.0377
     57 H20         8.0353   21.1680  -13.2432 H           1 GYN       0.0742
     58 H21         9.9334   20.3795  -13.8896 H           1 GYN       0.2129
     59 H22         9.4039   22.2871  -10.7430 H           1 GYN       0.0312
     60 H23         8.6455   20.7184  -10.8410 H           1 GYN       0.0312
     61 H24         7.0938   22.1685   -9.7906 H           1 GYN       0.0293
     62 H25         6.4495   21.7733  -11.3742 H           1 GYN       0.0293
     63 H26         7.1105   23.9625  -12.2541 H           1 GYN       0.0598
     64 H27         5.4916   24.0504   -9.6654 H           1 GYN       0.0295
     65 H28         4.8923   24.1616  -11.3438 H           1 GYN       0.0295
     66 H29         5.8467   26.2996  -11.6800 H           1 GYN       0.0345
     67 H30         5.4202   27.7879   -9.7238 H           1 GYN       0.0235
     68 H31         5.2242   26.3721   -8.6730 H           1 GYN       0.0235
     69 H32         4.0811   26.6614   -9.9977 H           1 GYN       0.0235
     70 H33         7.6609   26.1151   -9.2508 H           1 GYN       0.0747
     71 H34         9.7084   28.4065  -10.4854 H           1 GYN       0.0376
     72 H35         8.3205   28.2904   -9.4081 H           1 GYN       0.0376
     73 H36         8.1377   29.0604  -10.9778 H           1 GYN       0.0376
     74 H37         8.3571   25.8477  -12.7429 H           1 GYN       0.0245
     75 H38        10.2604   27.9009  -12.8922 H           1 GYN       0.0369
     76 H39         8.6898   28.5471  -13.3754 H           1 GYN       0.0369
     77 H40        10.3426   26.3849  -14.6912 H           1 GYN       0.0520
     78 H41         9.7776   27.8777  -15.3850 H           1 GYN       0.0520
     79 H42         5.6850   27.9032  -16.2860 H           1 GYN       0.0507
     80 H43         5.2950   26.8117  -14.9529 H           1 GYN       0.0507
     81 H44         6.0623   26.1483  -17.8085 H           1 GYN       0.0277
     82 H45         4.8335   25.4081  -16.7852 H           1 GYN       0.0277
     83 H46         6.4805   24.2937  -15.4497 H           1 GYN       0.0210
     84 H47         6.7832   23.8714  -17.1276 H           1 GYN       0.0210
@<TRIPOS>BOND
     1     1     2   2
     2     2     3   1
     3     2     6   1
     4     3     4   1
     5     4     5   1
     6     4     8   1
     7     5     6   1
     8     6     7   1
     9     8     9   2
    10     8    14   1
    11     9    10   1
    12     9    11   1
    13    11    12   1
    14    11    15   1
    15    12    13   1
    16    12    33   1
    17    12    37   1
    18    13    14   1
    19    15    16   2
    20    16    17   1
    21    16    18   1
    22    18    19   1
    23    18    20   1
    24    20    21   1
    25    21    22   1
    26    22    23   1
    27    22    26   1
    28    23    24   1
    29    24    25   1
    30    24    27   1
    31    26    27   1
    32    27    28   1
    33    28    29   1
    34    28    30   2
    35    30    31   1
    36    31    32   1
    37    32    33   1
    38    33    34   2
    39    34    35   1
    40    35    36   1
    41    36    37   1
    42     4    38   1
    43     5    39   1
    44     5    40   1
    45     6    41   1
    46     7    42   1
    47     7    43   1
    48     7    44   1
    49    10    45   1
    50    10    46   1
    51    10    47   1
    52    11    48   1
    53    13    49   1
    54    13    50   1
    55    14    51   1
    56    14    52   1
    57    15    53   1
    58    17    54   1
    59    17    55   1
    60    17    56   1
    61    18    57   1
    62    19    58   1
    63    20    59   1
    64    20    60   1
    65    21    61   1
    66    21    62   1
    67    22    63   1
    68    23    64   1
    69    23    65   1
    70    24    66   1
    71    25    67   1
    72    25    68   1
    73    25    69   1
    74    27    70   1
    75    29    71   1
    76    29    72   1
    77    29    73   1
    78    30    74   1
    79    31    75   1
    80    31    76   1
    81    32    77   1
    82    32    78   1
    83    35    79   1
    84    35    80   1
    85    36    81   1
    86    36    82   1
    87    37    83   1
    88    37    84   1
@<TRIPOS>SUBSTRUCTURE
     1  GYN      2

