@<TRIPOS>MOLECULE
2x00_ligand_084
    84    88
SMALL
GAST_HUCK
****
This file was generated by PARSER (from files_GN.cpp)

@<TRIPOS>ATOM
      1 O6          1.5092   26.2824   -4.2025 O.2         1 GYN      -0.3700
      2 C5          2.1750   26.1338   -5.3735 C.2         1 GYN       0.2385
      3 O1          3.3071   26.8095   -5.6419 O.3         1 GYN      -0.2655
      4 C2          3.8663   26.4807   -6.9096 C.3         1 GYN       0.1059
      5 C3          2.8778   25.4468   -7.5163 C.3         1 GYN       0.0041
      6 C4          1.7696   25.2219   -6.4482 C.3         1 GYN       0.0613
      7 C7          0.3355   25.5040   -6.9663 C.3         1 GYN      -0.0438
      8 C8          4.2216   27.5809   -7.8488 C.2         1 GYN      -0.0559
      9 C13         3.4638   28.7013   -8.0773 C.2         1 GYN      -0.0876
     10 C14         2.4705   29.1124   -7.0671 C.3         1 GYN      -0.0498
     11 C12         3.7251   29.6437   -9.2241 C.3         1 GYN      -0.0250
     12 C27         4.7328   29.1191  -10.3487 C.3         1 GYN       0.0148
     13 C10         5.9108   28.4297   -9.5824 C.3         1 GYN      -0.0494
     14 C9          5.4152   27.2922   -8.6608 C.3         1 GYN      -0.0395
     15 C15         2.4622   30.1448   -9.8023 C.2         1 GYN      -0.1023
     16 C16         1.8854   31.3790   -9.6907 C.2         1 GYN      -0.0548
     17 C19         2.5056   32.4412   -8.8888 C.3         1 GYN      -0.0377
     18 C17         0.4899   31.5627  -10.1419 C.3         1 GYN       0.0804
     19 O20        -0.3184   31.6264   -8.9628 O.3         1 GYN      -0.3807
     20 C18         0.1345   32.8096  -11.0164 C.3         1 GYN      -0.0158
     21 C21         0.5269   32.7652  -12.5203 C.3         1 GYN      -0.0223
     22 C43         2.0394   32.9318  -12.8211 C.3         1 GYN       0.0623
     23 C47         2.3849   33.0313  -14.3277 C.3         1 GYN      -0.0197
     24 C48         3.0716   34.4060  -14.4767 C.3         1 GYN      -0.0066
     25 C49         2.0988   35.5059  -14.9857 C.3         1 GYN      -0.0582
     26 O43         2.5404   34.1393  -12.2147 O.3         1 GYN      -0.3622
     27 C37         3.5892   34.6880  -13.0377 C.3         1 GYN       0.0865
     28 C36         4.9624   34.1957  -12.7668 C.2         1 GYN      -0.0553
     29 C38         6.0767   34.7982  -13.4972 C.3         1 GYN      -0.0379
     30 C35         5.1881   33.2351  -11.8460 C.2         1 GYN      -0.1039
     31 C34         6.4370   32.5408  -11.5584 C.3         1 GYN      -0.0315
     32 C33         6.2347   31.2555  -10.6842 C.3         1 GYN       0.0100
     33 C32         5.3214   30.2145  -11.1990 C.2         1 GYN       0.0383
     34 N31         5.1919   30.2161  -12.4768 N.2         1 GYN      -0.2722
     35 C30         4.4707   29.3894  -13.3255 C.3         1 GYN       0.0432
     36 C46         3.4232   28.5584  -12.5644 C.3         1 GYN      -0.0375
     37 C28         4.0558   28.0099  -11.2666 C.3         1 GYN      -0.0530
     38 H1          4.7746   25.9303   -6.6228 H           1 GYN       0.0753
     39 H2          3.4044   24.5114   -7.7205 H           1 GYN       0.0338
     40 H3          2.4573   25.7943   -8.4673 H           1 GYN       0.0338
     41 H4          1.8180   24.1993   -6.0734 H           1 GYN       0.0553
     42 H5         -0.3861   25.4396   -6.1472 H           1 GYN       0.0258
     43 H6          0.0641   24.7657   -7.7233 H           1 GYN       0.0258
     44 H7          0.2604   26.4985   -7.4168 H           1 GYN       0.0258
     45 H8          1.9401   30.0251   -7.2940 H           1 GYN       0.0329
     46 H9          2.9632   29.2812   -6.1042 H           1 GYN       0.0329
     47 H10         1.7033   28.3494   -6.9592 H           1 GYN       0.0329
     48 H11         4.2213   30.4798   -8.7447 H           1 GYN       0.0417
     49 H12         6.4296   29.1558   -8.9564 H           1 GYN       0.0226
     50 H13         6.6580   28.0310  -10.2802 H           1 GYN       0.0226
     51 H14         5.2121   26.4059   -9.2672 H           1 GYN       0.0362
     52 H15         6.2526   27.0362   -8.0041 H           1 GYN       0.0362
     53 H16         1.8971   29.4377  -10.2037 H           1 GYN       0.0252
     54 H17         3.4658   32.7341   -9.3004 H           1 GYN       0.0377
     55 H18         2.6669   32.1126   -7.8634 H           1 GYN       0.0377
     56 H19         1.8910   33.3389   -8.8234 H           1 GYN       0.0377
     57 H20         0.1224   30.6945  -10.7020 H           1 GYN       0.0742
     58 H21        -0.3731   30.7025   -8.6343 H           1 GYN       0.2129
     59 H22         0.5243   33.7261  -10.5717 H           1 GYN       0.0312
     60 H23        -0.9564   32.9098  -10.9973 H           1 GYN       0.0312
     61 H24        -0.0083   33.5754  -13.0254 H           1 GYN       0.0293
     62 H25         0.1769   31.8233  -12.9532 H           1 GYN       0.0293
     63 H26         2.5564   32.0676  -12.3974 H           1 GYN       0.0598
     64 H27         1.5081   32.9317  -14.9736 H           1 GYN       0.0295
     65 H28         3.0893   32.2403  -14.5994 H           1 GYN       0.0295
     66 H29         3.8900   34.3343  -15.1992 H           1 GYN       0.0345
     67 H30         2.6202   36.4623  -15.0591 H           1 GYN       0.0235
     68 H31         1.2495   35.6223  -14.3094 H           1 GYN       0.0235
     69 H32         1.7235   35.2463  -15.9773 H           1 GYN       0.0235
     70 H33         3.6019   35.7637  -12.8381 H           1 GYN       0.0747
     71 H34         6.8110   35.2010  -12.7960 H           1 GYN       0.0376
     72 H35         5.7553   35.6208  -14.1395 H           1 GYN       0.0376
     73 H36         6.5600   34.0510  -14.1298 H           1 GYN       0.0376
     74 H37         4.4157   32.9274  -11.3205 H           1 GYN       0.0245
     75 H38         7.1070   33.2255  -11.0340 H           1 GYN       0.0369
     76 H39         6.9217   32.2456  -12.4916 H           1 GYN       0.0369
     77 H40         5.9073   31.5935   -9.6990 H           1 GYN       0.0520
     78 H41         7.2202   30.8003  -10.5510 H           1 GYN       0.0520
     79 H42         5.1738   28.7273  -13.8408 H           1 GYN       0.0507
     80 H43         3.9673   30.0052  -14.0734 H           1 GYN       0.0507
     81 H44         3.0758   27.7348  -13.1842 H           1 GYN       0.0277
     82 H45         2.5689   29.1934  -12.3454 H           1 GYN       0.0277
     83 H46         3.2881   27.4588  -10.7177 H           1 GYN       0.0210
     84 H47         4.7983   27.2716  -11.5904 H           1 GYN       0.0210
@<TRIPOS>BOND
     1     1     2   2
     2     2     3   1
     3     2     6   1
     4     3     4   1
     5     4     5   1
     6     4     8   1
     7     5     6   1
     8     6     7   1
     9     8     9   2
    10     8    14   1
    11     9    10   1
    12     9    11   1
    13    11    12   1
    14    11    15   1
    15    12    13   1
    16    12    33   1
    17    12    37   1
    18    13    14   1
    19    15    16   2
    20    16    17   1
    21    16    18   1
    22    18    19   1
    23    18    20   1
    24    20    21   1
    25    21    22   1
    26    22    23   1
    27    22    26   1
    28    23    24   1
    29    24    25   1
    30    24    27   1
    31    26    27   1
    32    27    28   1
    33    28    29   1
    34    28    30   2
    35    30    31   1
    36    31    32   1
    37    32    33   1
    38    33    34   2
    39    34    35   1
    40    35    36   1
    41    36    37   1
    42     4    38   1
    43     5    39   1
    44     5    40   1
    45     6    41   1
    46     7    42   1
    47     7    43   1
    48     7    44   1
    49    10    45   1
    50    10    46   1
    51    10    47   1
    52    11    48   1
    53    13    49   1
    54    13    50   1
    55    14    51   1
    56    14    52   1
    57    15    53   1
    58    17    54   1
    59    17    55   1
    60    17    56   1
    61    18    57   1
    62    19    58   1
    63    20    59   1
    64    20    60   1
    65    21    61   1
    66    21    62   1
    67    22    63   1
    68    23    64   1
    69    23    65   1
    70    24    66   1
    71    25    67   1
    72    25    68   1
    73    25    69   1
    74    27    70   1
    75    29    71   1
    76    29    72   1
    77    29    73   1
    78    30    74   1
    79    31    75   1
    80    31    76   1
    81    32    77   1
    82    32    78   1
    83    35    79   1
    84    35    80   1
    85    36    81   1
    86    36    82   1
    87    37    83   1
    88    37    84   1
@<TRIPOS>SUBSTRUCTURE
     1  GYN      2

