@<TRIPOS>MOLECULE
2x00_ligand_016
    84    88
SMALL
GAST_HUCK
****
This file was generated by PARSER (from files_GN.cpp)

@<TRIPOS>ATOM
      1 O6          7.2010   22.8077   -9.8451 O.2         1 GYN      -0.3700
      2 C5          7.3322   23.7810   -8.9163 C.2         1 GYN       0.2385
      3 O1          6.5519   23.8418   -7.8158 O.3         1 GYN      -0.2655
      4 C2          6.8860   24.9122   -6.9353 C.3         1 GYN       0.1059
      5 C3          8.0841   25.6155   -7.6367 C.3         1 GYN       0.0041
      6 C4          8.3834   24.8000   -8.9280 C.3         1 GYN       0.0613
      7 C7          8.3839   25.6477  -10.2274 C.3         1 GYN      -0.0438
      8 C8          5.7281   25.8037   -6.6470 C.2         1 GYN      -0.0559
      9 C13         5.5051   26.3863   -5.4309 C.2         1 GYN      -0.0876
     10 C14         6.6067   26.4263   -4.4476 C.3         1 GYN      -0.0498
     11 C12         4.2414   27.1358   -5.1105 C.3         1 GYN      -0.0250
     12 C27         3.0560   26.9540   -6.1715 C.3         1 GYN       0.0148
     13 C10         3.7404   27.1270   -7.5703 C.3         1 GYN      -0.0494
     14 C9          4.8609   26.0877   -7.8004 C.3         1 GYN      -0.0395
     15 C15         3.7900   26.8430   -3.7330 C.2         1 GYN      -0.1023
     16 C16         3.8092   27.6288   -2.6254 C.2         1 GYN      -0.0548
     17 C19         4.2768   29.0201   -2.6830 C.3         1 GYN      -0.0377
     18 C17         3.6552   26.9907   -1.2953 C.3         1 GYN       0.0804
     19 O20         4.9838   26.8866   -0.7753 O.3         1 GYN      -0.3807
     20 C18         2.7347   27.6577   -0.2240 C.3         1 GYN      -0.0158
     21 C21         1.2093   27.3829   -0.3357 C.3         1 GYN      -0.0223
     22 C43         0.4718   28.0554   -1.5252 C.3         1 GYN       0.0623
     23 C47        -1.0558   27.8768   -1.4729 C.3         1 GYN      -0.0197
     24 C48        -1.5521   28.9836   -2.4183 C.3         1 GYN      -0.0066
     25 C49        -2.9997   29.4493   -2.1270 C.3         1 GYN      -0.0582
     26 O43         0.6508   29.4793   -1.5433 O.3         1 GYN      -0.3622
     27 C37        -0.4624   30.0829   -2.2439 C.3         1 GYN       0.0865
     28 C36        -0.1117   30.7143   -3.5311 C.2         1 GYN      -0.0553
     29 C38        -0.9792   31.7644   -4.0635 C.3         1 GYN      -0.0379
     30 C35         0.8817   30.1830   -4.2732 C.2         1 GYN      -0.1039
     31 C34         1.1623   30.4345   -5.6807 C.3         1 GYN      -0.0315
     32 C33         2.1970   29.4354   -6.2972 C.3         1 GYN       0.0100
     33 C32         1.9727   27.9940   -6.0760 C.2         1 GYN       0.0383
     34 N31         0.7314   27.6643   -5.9309 N.2         1 GYN      -0.2722
     35 C30         0.1254   26.4378   -5.7053 C.3         1 GYN       0.0432
     36 C46         1.1405   25.3657   -5.2591 C.3         1 GYN      -0.0375
     37 C28         2.4204   25.4919   -6.1214 C.3         1 GYN      -0.0530
     38 H1          7.2318   24.4054   -6.0306 H           1 GYN       0.0753
     39 H2          8.9613   25.6083   -6.9784 H           1 GYN       0.0338
     40 H3          7.8619   26.6624   -7.8778 H           1 GYN       0.0338
     41 H4          9.3528   24.2942   -8.8379 H           1 GYN       0.0553
     42 H5          8.5745   25.0068  -11.0899 H           1 GYN       0.0258
     43 H6          9.1771   26.3964  -10.1682 H           1 GYN       0.0258
     44 H7          7.4253   26.1509  -10.3598 H           1 GYN       0.0258
     45 H8          7.5356   26.7528   -4.9223 H           1 GYN       0.0329
     46 H9          6.7549   25.4378   -4.0073 H           1 GYN       0.0329
     47 H10         6.4307   27.1187   -3.6269 H           1 GYN       0.0329
     48 H11         4.5584   28.1731   -5.1566 H           1 GYN       0.0417
     49 H12         4.1985   28.1169   -7.6493 H           1 GYN       0.0226
     50 H13         3.0044   27.0449   -8.3812 H           1 GYN       0.0226
     51 H14         4.3927   25.1571   -8.1287 H           1 GYN       0.0362
     52 H15         5.4717   26.4579   -8.6283 H           1 GYN       0.0362
     53 H16         3.5660   25.8865   -3.5890 H           1 GYN       0.0252
     54 H17         5.3181   29.0545   -2.9991 H           1 GYN       0.0377
     55 H18         4.2381   29.5333   -1.7245 H           1 GYN       0.0377
     56 H19         3.6844   29.6043   -3.3850 H           1 GYN       0.0377
     57 H20         3.3028   25.9593   -1.3913 H           1 GYN       0.0742
     58 H21         4.9295   26.2577   -0.0244 H           1 GYN       0.2129
     59 H22         2.9030   28.7327   -0.1552 H           1 GYN       0.0312
     60 H23         3.0356   27.2495    0.7460 H           1 GYN       0.0312
     61 H24         0.7499   27.7338    0.5919 H           1 GYN       0.0293
     62 H25         1.0495   26.3028   -0.3895 H           1 GYN       0.0293
     63 H26         0.8529   27.6243   -2.4559 H           1 GYN       0.0598
     64 H27        -1.4315   28.0413   -0.4583 H           1 GYN       0.0295
     65 H28        -1.3606   26.8881   -1.8173 H           1 GYN       0.0295
     66 H29        -1.5308   28.5812   -3.4397 H           1 GYN       0.0345
     67 H30        -3.3220   30.1787   -2.8730 H           1 GYN       0.0235
     68 H31        -3.0712   29.9045   -1.1384 H           1 GYN       0.0235
     69 H32        -3.6760   28.5958   -2.1643 H           1 GYN       0.0235
     70 H33        -0.8190   30.8516   -1.5526 H           1 GYN       0.0747
     71 H34        -0.3799   32.6113   -4.4017 H           1 GYN       0.0376
     72 H35        -1.6805   32.1410   -3.3165 H           1 GYN       0.0376
     73 H36        -1.5624   31.3803   -4.9024 H           1 GYN       0.0376
     74 H37         1.4251   29.4735   -3.8546 H           1 GYN       0.0245
     75 H38         1.5369   31.4556   -5.7939 H           1 GYN       0.0369
     76 H39         0.2344   30.3499   -6.2524 H           1 GYN       0.0369
     77 H40         3.1695   29.7220   -5.9054 H           1 GYN       0.0520
     78 H41         2.2236   29.6135   -7.3752 H           1 GYN       0.0520
     79 H42        -0.3738   26.1269   -6.6256 H           1 GYN       0.0507
     80 H43        -0.6339   26.5598   -4.9300 H           1 GYN       0.0507
     81 H44         0.7027   24.3707   -5.3751 H           1 GYN       0.0277
     82 H45         1.3671   25.5093   -4.2009 H           1 GYN       0.0277
     83 H46         3.1470   24.7585   -5.7668 H           1 GYN       0.0210
     84 H47         2.1273   25.1728   -7.1272 H           1 GYN       0.0210
@<TRIPOS>BOND
     1     1     2   2
     2     2     3   1
     3     2     6   1
     4     3     4   1
     5     4     5   1
     6     4     8   1
     7     5     6   1
     8     6     7   1
     9     8     9   2
    10     8    14   1
    11     9    10   1
    12     9    11   1
    13    11    12   1
    14    11    15   1
    15    12    13   1
    16    12    33   1
    17    12    37   1
    18    13    14   1
    19    15    16   2
    20    16    17   1
    21    16    18   1
    22    18    19   1
    23    18    20   1
    24    20    21   1
    25    21    22   1
    26    22    23   1
    27    22    26   1
    28    23    24   1
    29    24    25   1
    30    24    27   1
    31    26    27   1
    32    27    28   1
    33    28    29   1
    34    28    30   2
    35    30    31   1
    36    31    32   1
    37    32    33   1
    38    33    34   2
    39    34    35   1
    40    35    36   1
    41    36    37   1
    42     4    38   1
    43     5    39   1
    44     5    40   1
    45     6    41   1
    46     7    42   1
    47     7    43   1
    48     7    44   1
    49    10    45   1
    50    10    46   1
    51    10    47   1
    52    11    48   1
    53    13    49   1
    54    13    50   1
    55    14    51   1
    56    14    52   1
    57    15    53   1
    58    17    54   1
    59    17    55   1
    60    17    56   1
    61    18    57   1
    62    19    58   1
    63    20    59   1
    64    20    60   1
    65    21    61   1
    66    21    62   1
    67    22    63   1
    68    23    64   1
    69    23    65   1
    70    24    66   1
    71    25    67   1
    72    25    68   1
    73    25    69   1
    74    27    70   1
    75    29    71   1
    76    29    72   1
    77    29    73   1
    78    30    74   1
    79    31    75   1
    80    31    76   1
    81    32    77   1
    82    32    78   1
    83    35    79   1
    84    35    80   1
    85    36    81   1
    86    36    82   1
    87    37    83   1
    88    37    84   1
@<TRIPOS>SUBSTRUCTURE
     1  GYN      2

