@<TRIPOS>MOLECULE
2x00_ligand_023
    84    88
SMALL
GAST_HUCK
****
This file was generated by PARSER (from files_GN.cpp)

@<TRIPOS>ATOM
      1 O6          5.2583   43.0896    3.0501 O.2         1 GYN      -0.3700
      2 C5          4.9176   42.3153    4.1078 C.2         1 GYN       0.2385
      3 O1          4.7509   40.9872    3.9913 O.3         1 GYN      -0.2655
      4 C2          4.4920   40.3489    5.2387 C.3         1 GYN       0.1059
      5 C3          4.5208   41.5088    6.2862 C.3         1 GYN       0.0041
      6 C4          4.7884   42.8104    5.4801 C.3         1 GYN       0.0613
      7 C7          3.6915   43.8976    5.5872 C.3         1 GYN      -0.0438
      8 C8          3.2396   39.5465    5.1992 C.2         1 GYN      -0.0559
      9 C13         3.1219   38.2787    5.7033 C.2         1 GYN      -0.0876
     10 C14         4.1847   37.7772    6.5981 C.3         1 GYN      -0.0498
     11 C12         1.8678   37.4602    5.5771 C.3         1 GYN      -0.0250
     12 C27         0.7940   38.0070    4.5196 C.3         1 GYN       0.0148
     13 C10         0.7227   39.5532    4.7743 C.3         1 GYN      -0.0494
     14 C9          2.0922   40.2421    4.5994 C.3         1 GYN      -0.0395
     15 C15         2.1858   36.0246    5.3825 C.2         1 GYN      -0.1023
     16 C16         2.0617   34.9849    6.2476 C.2         1 GYN      -0.0548
     17 C19         1.4192   35.1484    7.5552 C.3         1 GYN      -0.0377
     18 C17         2.7033   33.6890    5.9452 C.3         1 GYN       0.0804
     19 O20         3.6779   33.4177    6.9640 O.3         1 GYN      -0.3807
     20 C18         1.7437   32.4604    5.8230 C.3         1 GYN      -0.0158
     21 C21         1.0426   32.2568    4.4508 C.3         1 GYN      -0.0223
     22 C43        -0.2147   33.1347    4.2117 C.3         1 GYN       0.0623
     23 C47        -0.7960   33.0081    2.7848 C.3         1 GYN      -0.0197
     24 C48        -2.3151   32.8246    2.9942 C.3         1 GYN      -0.0066
     25 C49        -2.8059   31.4106    2.5760 C.3         1 GYN      -0.0582
     26 O43        -1.2686   32.7343    5.0996 O.3         1 GYN      -0.3622
     27 C37        -2.5310   33.1029    4.5139 C.3         1 GYN       0.0865
     28 C36        -3.0239   34.4594    4.8444 C.2         1 GYN      -0.0553
     29 C38        -4.3042   34.8843    4.2709 C.3         1 GYN      -0.0379
     30 C35        -2.3683   35.2453    5.7280 C.2         1 GYN      -0.1039
     31 C34        -2.6393   36.6400    6.0584 C.3         1 GYN      -0.0315
     32 C33        -1.3790   37.5516    5.9293 C.3         1 GYN       0.0100
     33 C32        -0.6159   37.5074    4.6686 C.2         1 GYN       0.0383
     34 N31        -1.3649   37.3515    3.6273 N.2         1 GYN      -0.2722
     35 C30        -1.1045   37.4729    2.2634 C.3         1 GYN       0.0432
     36 C46         0.2568   38.1379    1.9553 C.3         1 GYN      -0.0375
     37 C28         1.2773   37.7108    3.0348 C.3         1 GYN      -0.0530
     38 H1          5.3773   39.7315    5.3863 H           1 GYN       0.0753
     39 H2          5.3291   41.3431    7.0039 H           1 GYN       0.0338
     40 H3          3.5944   41.5677    6.8617 H           1 GYN       0.0338
     41 H4          5.7474   43.2401    5.7824 H           1 GYN       0.0553
     42 H5          3.9721   44.7669    4.9914 H           1 GYN       0.0258
     43 H6          3.5767   44.2126    6.6239 H           1 GYN       0.0258
     44 H7          2.7321   43.5285    5.2250 H           1 GYN       0.0258
     45 H8          3.9193   36.8729    7.1360 H           1 GYN       0.0329
     46 H9          4.4232   38.5242    7.3580 H           1 GYN       0.0329
     47 H10         5.0838   37.5454    6.0219 H           1 GYN       0.0329
     48 H11         1.4238   37.5903    6.5606 H           1 GYN       0.0417
     49 H12         0.3962   39.7473    5.8032 H           1 GYN       0.0226
     50 H13        -0.0027   40.0452    4.1170 H           1 GYN       0.0226
     51 H14         2.2826   40.3887    3.5339 H           1 GYN       0.0362
     52 H15         1.9900   41.2364    5.0396 H           1 GYN       0.0362
     53 H16         2.6833   35.8327    4.5491 H           1 GYN       0.0252
     54 H17         1.9126   35.9307    8.1396 H           1 GYN       0.0377
     55 H18         1.4545   34.2424    8.1581 H           1 GYN       0.0377
     56 H19         0.3686   35.4068    7.4370 H           1 GYN       0.0377
     57 H20         3.2869   33.7332    5.0296 H           1 GYN       0.0742
     58 H21         3.2744   32.7523    7.5641 H           1 GYN       0.2129
     59 H22         0.9851   32.4815    6.6128 H           1 GYN       0.0312
     60 H23         2.3380   31.5560    5.9953 H           1 GYN       0.0312
     61 H24         0.7260   31.2101    4.3811 H           1 GYN       0.0293
     62 H25         1.7656   32.4284    3.6476 H           1 GYN       0.0293
     63 H26         0.0370   34.1832    4.4006 H           1 GYN       0.0598
     64 H27        -0.3552   32.1689    2.2381 H           1 GYN       0.0295
     65 H28        -0.5881   33.9208    2.2167 H           1 GYN       0.0295
     66 H29        -2.8444   33.5456    2.3686 H           1 GYN       0.0345
     67 H30        -3.8843   31.3260    2.7300 H           1 GYN       0.0235
     68 H31        -2.3064   30.6354    3.1627 H           1 GYN       0.0235
     69 H32        -2.5995   31.2358    1.5170 H           1 GYN       0.0235
     70 H33        -3.2704   32.4090    4.9302 H           1 GYN       0.0747
     71 H34        -4.9944   35.1800    5.0652 H           1 GYN       0.0376
     72 H35        -4.7945   34.0911    3.7039 H           1 GYN       0.0376
     73 H36        -4.1493   35.7290    3.5972 H           1 GYN       0.0376
     74 H37        -1.6084   34.8505    6.2245 H           1 GYN       0.0245
     75 H38        -2.9941   36.6737    7.0920 H           1 GYN       0.0369
     76 H39        -3.4310   37.0694    5.4413 H           1 GYN       0.0369
     77 H40        -0.7386   37.3233    6.7748 H           1 GYN       0.0520
     78 H41        -1.7180   38.5811    6.0742 H           1 GYN       0.0520
     79 H42        -1.9011   38.0624    1.8071 H           1 GYN       0.0507
     80 H43        -1.1340   36.4732    1.8278 H           1 GYN       0.0507
     81 H44         0.1531   39.2250    1.9412 H           1 GYN       0.0277
     82 H45         0.6089   37.8291    0.9674 H           1 GYN       0.0277
     83 H46         1.4150   36.6374    2.8935 H           1 GYN       0.0210
     84 H47         2.2369   38.1793    2.8192 H           1 GYN       0.0210
@<TRIPOS>BOND
     1     1     2   2
     2     2     3   1
     3     2     6   1
     4     3     4   1
     5     4     5   1
     6     4     8   1
     7     5     6   1
     8     6     7   1
     9     8     9   2
    10     8    14   1
    11     9    10   1
    12     9    11   1
    13    11    12   1
    14    11    15   1
    15    12    13   1
    16    12    33   1
    17    12    37   1
    18    13    14   1
    19    15    16   2
    20    16    17   1
    21    16    18   1
    22    18    19   1
    23    18    20   1
    24    20    21   1
    25    21    22   1
    26    22    23   1
    27    22    26   1
    28    23    24   1
    29    24    25   1
    30    24    27   1
    31    26    27   1
    32    27    28   1
    33    28    29   1
    34    28    30   2
    35    30    31   1
    36    31    32   1
    37    32    33   1
    38    33    34   2
    39    34    35   1
    40    35    36   1
    41    36    37   1
    42     4    38   1
    43     5    39   1
    44     5    40   1
    45     6    41   1
    46     7    42   1
    47     7    43   1
    48     7    44   1
    49    10    45   1
    50    10    46   1
    51    10    47   1
    52    11    48   1
    53    13    49   1
    54    13    50   1
    55    14    51   1
    56    14    52   1
    57    15    53   1
    58    17    54   1
    59    17    55   1
    60    17    56   1
    61    18    57   1
    62    19    58   1
    63    20    59   1
    64    20    60   1
    65    21    61   1
    66    21    62   1
    67    22    63   1
    68    23    64   1
    69    23    65   1
    70    24    66   1
    71    25    67   1
    72    25    68   1
    73    25    69   1
    74    27    70   1
    75    29    71   1
    76    29    72   1
    77    29    73   1
    78    30    74   1
    79    31    75   1
    80    31    76   1
    81    32    77   1
    82    32    78   1
    83    35    79   1
    84    35    80   1
    85    36    81   1
    86    36    82   1
    87    37    83   1
    88    37    84   1
@<TRIPOS>SUBSTRUCTURE
     1  GYN      2

