@<TRIPOS>MOLECULE
2x00_ligand_027
    84    88
SMALL
GAST_HUCK
****
This file was generated by PARSER (from files_GN.cpp)

@<TRIPOS>ATOM
      1 O6          9.9290   27.3932  -23.1859 O.2         1 GYN      -0.3700
      2 C5         10.2980   26.4863  -22.2557 C.2         1 GYN       0.2385
      3 O1          9.4397   25.5814  -21.7488 O.3         1 GYN      -0.2655
      4 C2         10.0686   24.6654  -20.8560 C.3         1 GYN       0.1059
      5 C3         11.5113   25.2258  -20.6856 C.3         1 GYN       0.0041
      6 C4         11.6747   26.3120  -21.7838 C.3         1 GYN       0.0613
      7 C7         12.3158   27.6325  -21.2740 C.3         1 GYN      -0.0438
      8 C8          9.3987   24.3873  -19.5579 C.2         1 GYN      -0.0559
      9 C13         8.9412   25.3450  -18.6983 C.2         1 GYN      -0.0876
     10 C14         8.5777   26.6684  -19.2373 C.3         1 GYN      -0.0498
     11 C12         8.6177   25.0500  -17.2599 C.3         1 GYN      -0.0250
     12 C27         9.1647   23.6491  -16.7160 C.3         1 GYN       0.0148
     13 C10         8.7713   22.6065  -17.8208 C.3         1 GYN      -0.0494
     14 C9          9.3824   22.9592  -19.1971 C.3         1 GYN      -0.0395
     15 C15         9.0230   26.1685  -16.3816 C.2         1 GYN      -0.1023
     16 C16         8.2485   27.0910  -15.7436 C.2         1 GYN      -0.0548
     17 C19         6.7856   27.0544  -15.8539 C.3         1 GYN      -0.0377
     18 C17         8.8886   28.2929  -15.1573 C.3         1 GYN       0.0804
     19 O20         8.5767   29.3889  -16.0226 O.3         1 GYN      -0.3807
     20 C18         8.5191   28.7189  -13.6988 C.3         1 GYN      -0.0158
     21 C21         9.1675   27.9118  -12.5357 C.3         1 GYN      -0.0223
     22 C43         8.5688   26.5040  -12.2916 C.3         1 GYN       0.0623
     23 C47         9.0924   25.7924  -11.0190 C.3         1 GYN      -0.0197
     24 C48         7.8269   25.5478  -10.1697 C.3         1 GYN      -0.0066
     25 C49         7.6379   26.6276   -9.0680 C.3         1 GYN      -0.0582
     26 O43         7.1382   26.5941  -12.1409 O.3         1 GYN      -0.3622
     27 C37         6.6911   25.5707  -11.2318 C.3         1 GYN       0.0865
     28 C36         6.3777   24.2538  -11.8343 C.2         1 GYN      -0.0553
     29 C38         5.8041   23.2075  -10.9876 C.3         1 GYN      -0.0379
     30 C35         6.5859   24.0293  -13.1521 C.2         1 GYN      -0.1039
     31 C34         6.4988   22.7642  -13.8633 C.3         1 GYN      -0.0315
     32 C33         7.1114   22.8236  -15.3010 C.3         1 GYN       0.0100
     33 C32         8.5324   23.2087  -15.4231 C.2         1 GYN       0.0383
     34 N31         9.2452   22.9732  -14.3735 N.2         1 GYN      -0.2722
     35 C30        10.6009   23.1266  -14.1177 C.3         1 GYN       0.0432
     36 C46        11.3037   23.9934  -15.1795 C.3         1 GYN      -0.0375
     37 C28        10.7549   23.6339  -16.5822 C.3         1 GYN      -0.0530
     38 H1         10.1573   23.7452  -21.4454 H           1 GYN       0.0753
     39 H2         12.2550   24.4246  -20.8082 H           1 GYN       0.0338
     40 H3         11.6561   25.6665  -19.6892 H           1 GYN       0.0338
     41 H4         12.2770   25.9181  -22.6097 H           1 GYN       0.0553
     42 H5         12.4029   28.3472  -22.1010 H           1 GYN       0.0258
     43 H6         13.3207   27.4303  -20.8823 H           1 GYN       0.0258
     44 H7         11.7114   28.0838  -20.4761 H           1 GYN       0.0258
     45 H8          8.1633   27.3582  -18.5091 H           1 GYN       0.0329
     46 H9          7.8164   26.5524  -20.0114 H           1 GYN       0.0329
     47 H10         9.4575   27.1582  -19.6501 H           1 GYN       0.0329
     48 H11         7.5303   24.9804  -17.2643 H           1 GYN       0.0417
     49 H12         7.6833   22.5772  -17.9466 H           1 GYN       0.0226
     50 H13         9.0867   21.5973  -17.5299 H           1 GYN       0.0226
     51 H14        10.4097   22.5820  -19.2135 H           1 GYN       0.0362
     52 H15         8.8212   22.4029  -19.9560 H           1 GYN       0.0362
     53 H16         9.9983   26.3484  -16.3900 H           1 GYN       0.0252
     54 H17         6.3885   26.1167  -15.4712 H           1 GYN       0.0377
     55 H18         6.4805   27.1529  -16.8965 H           1 GYN       0.0377
     56 H19         6.2964   27.8619  -15.3095 H           1 GYN       0.0377
     57 H20         9.9805   28.2163  -15.1734 H           1 GYN       0.0742
     58 H21         8.9867   29.1692  -16.8869 H           1 GYN       0.2129
     59 H22         7.4376   28.7499  -13.5649 H           1 GYN       0.0312
     60 H23         8.8653   29.7509  -13.5775 H           1 GYN       0.0312
     61 H24         9.0410   28.4982  -11.6208 H           1 GYN       0.0293
     62 H25        10.2427   27.8199  -12.7176 H           1 GYN       0.0293
     63 H26         8.8118   25.8928  -13.1651 H           1 GYN       0.0598
     64 H27         9.8485   26.3767  -10.4867 H           1 GYN       0.0295
     65 H28         9.5423   24.8345  -11.2928 H           1 GYN       0.0295
     66 H29         7.9006   24.5777   -9.6706 H           1 GYN       0.0345
     67 H30         6.7177   26.4388   -8.5140 H           1 GYN       0.0235
     68 H31         7.5847   27.6278   -9.5014 H           1 GYN       0.0235
     69 H32         8.4707   26.5987   -8.3636 H           1 GYN       0.0235
     70 H33         5.7606   25.9381  -10.7908 H           1 GYN       0.0747
     71 H34         4.8525   22.8666  -11.4022 H           1 GYN       0.0376
     72 H35         5.6081   23.5608   -9.9730 H           1 GYN       0.0376
     73 H36         6.4857   22.3574  -10.9186 H           1 GYN       0.0376
     74 H37         6.8736   24.7922  -13.7018 H           1 GYN       0.0245
     75 H38         5.4494   22.4707  -13.9338 H           1 GYN       0.0369
     76 H39         7.0293   21.9916  -13.3007 H           1 GYN       0.0369
     77 H40         6.4890   23.4999  -15.8883 H           1 GYN       0.0520
     78 H41         6.9979   21.8269  -15.7349 H           1 GYN       0.0520
     79 H42        11.0524   22.1324  -14.0854 H           1 GYN       0.0507
     80 H43        10.7207   23.5825  -13.1339 H           1 GYN       0.0507
     81 H44        12.3835   23.8218  -15.1371 H           1 GYN       0.0277
     82 H45        11.1314   25.0430  -14.9477 H           1 GYN       0.0277
     83 H46        11.2198   24.3049  -17.3078 H           1 GYN       0.0210
     84 H47        11.1404   22.6318  -16.7981 H           1 GYN       0.0210
@<TRIPOS>BOND
     1     1     2   2
     2     2     3   1
     3     2     6   1
     4     3     4   1
     5     4     5   1
     6     4     8   1
     7     5     6   1
     8     6     7   1
     9     8     9   2
    10     8    14   1
    11     9    10   1
    12     9    11   1
    13    11    12   1
    14    11    15   1
    15    12    13   1
    16    12    33   1
    17    12    37   1
    18    13    14   1
    19    15    16   2
    20    16    17   1
    21    16    18   1
    22    18    19   1
    23    18    20   1
    24    20    21   1
    25    21    22   1
    26    22    23   1
    27    22    26   1
    28    23    24   1
    29    24    25   1
    30    24    27   1
    31    26    27   1
    32    27    28   1
    33    28    29   1
    34    28    30   2
    35    30    31   1
    36    31    32   1
    37    32    33   1
    38    33    34   2
    39    34    35   1
    40    35    36   1
    41    36    37   1
    42     4    38   1
    43     5    39   1
    44     5    40   1
    45     6    41   1
    46     7    42   1
    47     7    43   1
    48     7    44   1
    49    10    45   1
    50    10    46   1
    51    10    47   1
    52    11    48   1
    53    13    49   1
    54    13    50   1
    55    14    51   1
    56    14    52   1
    57    15    53   1
    58    17    54   1
    59    17    55   1
    60    17    56   1
    61    18    57   1
    62    19    58   1
    63    20    59   1
    64    20    60   1
    65    21    61   1
    66    21    62   1
    67    22    63   1
    68    23    64   1
    69    23    65   1
    70    24    66   1
    71    25    67   1
    72    25    68   1
    73    25    69   1
    74    27    70   1
    75    29    71   1
    76    29    72   1
    77    29    73   1
    78    30    74   1
    79    31    75   1
    80    31    76   1
    81    32    77   1
    82    32    78   1
    83    35    79   1
    84    35    80   1
    85    36    81   1
    86    36    82   1
    87    37    83   1
    88    37    84   1
@<TRIPOS>SUBSTRUCTURE
     1  GYN      2

