@<TRIPOS>MOLECULE
2x00_ligand_014
    84    88
SMALL
GAST_HUCK
****
This file was generated by PARSER (from files_GN.cpp)

@<TRIPOS>ATOM
      1 O6          5.1073   22.9402  -12.0685 O.2         1 GYN      -0.3700
      2 C5          5.6660   23.5167  -10.9823 C.2         1 GYN       0.2385
      3 O1          5.2065   23.2922   -9.7428 O.3         1 GYN      -0.2655
      4 C2          5.9676   23.9375   -8.7170 C.3         1 GYN       0.1059
      5 C3          7.1089   24.6398   -9.5107 C.3         1 GYN       0.0041
      6 C4          6.8561   24.3619  -11.0163 C.3         1 GYN       0.0613
      7 C7          6.6434   25.6375  -11.8706 C.3         1 GYN      -0.0438
      8 C8          5.1838   24.8431   -7.8399 C.2         1 GYN      -0.0559
      9 C13         5.5976   25.2152   -6.5899 C.2         1 GYN      -0.0876
     10 C14         6.9885   24.9148   -6.1775 C.3         1 GYN      -0.0498
     11 C12         4.7467   26.0432   -5.6746 C.3         1 GYN      -0.0250
     12 C27         3.2068   26.1970   -6.1018 C.3         1 GYN       0.0148
     13 C10         3.2464   26.4976   -7.6389 C.3         1 GYN      -0.0494
     14 C9          3.9562   25.3882   -8.4374 C.3         1 GYN      -0.0395
     15 C15         4.9012   25.5881   -4.2738 C.2         1 GYN      -0.1023
     16 C16         5.5486   26.1904   -3.2434 C.2         1 GYN      -0.0548
     17 C19         6.0957   27.5373   -3.3595 C.3         1 GYN      -0.0377
     18 C17         5.8554   25.4281   -2.0204 C.3         1 GYN       0.0804
     19 O20         7.2849   25.3641   -1.9055 O.3         1 GYN      -0.3807
     20 C18         5.2264   25.9915   -0.7026 C.3         1 GYN      -0.0158
     21 C21         3.7328   25.6360   -0.4622 C.3         1 GYN      -0.0223
     22 C43         2.6944   26.5165   -1.2030 C.3         1 GYN       0.0623
     23 C47         1.2415   26.0142   -1.0283 C.3         1 GYN      -0.0197
     24 C48         0.4432   27.2690   -0.6092 C.3         1 GYN      -0.0066
     25 C49         0.0275   27.2428    0.8864 C.3         1 GYN      -0.0582
     26 O43         2.7084   27.8685   -0.6919 O.3         1 GYN      -0.3622
     27 C37         1.4070   28.4517   -0.9321 C.3         1 GYN       0.0865
     28 C36         1.2141   29.0827   -2.2560 C.2         1 GYN      -0.0553
     29 C38        -0.1071   29.6245   -2.5786 C.3         1 GYN      -0.0379
     30 C35         2.2553   29.2501   -3.1050 C.2         1 GYN      -0.1039
     31 C34         2.2166   29.7202   -4.4855 C.3         1 GYN      -0.0315
     32 C33         2.9045   28.7328   -5.4815 C.3         1 GYN       0.0100
     33 C32         2.4485   27.3332   -5.4754 C.2         1 GYN       0.0383
     34 N31         1.1858   27.2098   -5.2313 N.2         1 GYN      -0.2722
     35 C30         0.3077   26.1353   -5.3407 C.3         1 GYN       0.0432
     36 C46         0.9085   24.9339   -6.1072 C.3         1 GYN      -0.0375
     37 C28         2.4214   24.8484   -5.7989 C.3         1 GYN      -0.0530
     38 H1          6.3698   23.1057   -8.1255 H           1 GYN       0.0753
     39 H2          8.0758   24.2162   -9.2181 H           1 GYN       0.0338
     40 H3          7.1458   25.7125   -9.3106 H           1 GYN       0.0338
     41 H4          7.6876   23.7805  -11.4365 H           1 GYN       0.0553
     42 H5          6.4657   25.3651  -12.9118 H           1 GYN       0.0258
     43 H6          7.5380   26.2633  -11.8213 H           1 GYN       0.0258
     44 H7          5.7905   26.2134  -11.5037 H           1 GYN       0.0258
     45 H8          7.2834   25.3956   -5.2455 H           1 GYN       0.0329
     46 H9          7.7006   25.2689   -6.9196 H           1 GYN       0.0329
     47 H10         7.1147   23.8393   -6.0369 H           1 GYN       0.0329
     48 H11         5.1958   27.0276   -5.7769 H           1 GYN       0.0417
     49 H12         3.7972   27.4281   -7.8203 H           1 GYN       0.0226
     50 H13         2.2434   26.6419   -8.0472 H           1 GYN       0.0226
     51 H14         3.2497   24.5738   -8.6059 H           1 GYN       0.0362
     52 H15         4.1971   25.8122   -9.4214 H           1 GYN       0.0362
     53 H16         4.6197   24.6499   -4.1153 H           1 GYN       0.0252
     54 H17         6.8004   27.5942   -4.1942 H           1 GYN       0.0377
     55 H18         6.6411   27.8541   -2.4716 H           1 GYN       0.0377
     56 H19         5.2965   28.2600   -3.5165 H           1 GYN       0.0377
     57 H20         5.5419   24.3786   -2.1045 H           1 GYN       0.0742
     58 H21         7.4859   24.5640   -1.3889 H           1 GYN       0.2129
     59 H22         5.3558   27.0659   -0.6333 H           1 GYN       0.0312
     60 H23         5.7938   25.5589    0.1343 H           1 GYN       0.0312
     61 H24         3.5363   25.7161    0.6159 H           1 GYN       0.0293
     62 H25         3.5674   24.5937   -0.7383 H           1 GYN       0.0293
     63 H26         2.9402   26.5379   -2.2650 H           1 GYN       0.0598
     64 H27         1.1659   25.2154   -0.2807 H           1 GYN       0.0295
     65 H28         0.8784   25.6200   -1.9767 H           1 GYN       0.0295
     66 H29        -0.4769   27.3083   -1.1974 H           1 GYN       0.0345
     67 H30        -0.5899   28.1117    1.1157 H           1 GYN       0.0235
     68 H31         0.9043   27.2531    1.5367 H           1 GYN       0.0235
     69 H32        -0.5509   26.3444    1.0993 H           1 GYN       0.0235
     70 H33         1.2859   29.2484   -0.1994 H           1 GYN       0.0747
     71 H34        -0.0297   30.6700   -2.8846 H           1 GYN       0.0376
     72 H35        -0.7881   29.5984   -1.7251 H           1 GYN       0.0376
     73 H36        -0.5598   29.0489   -3.3892 H           1 GYN       0.0376
     74 H37         3.1640   29.0372   -2.7725 H           1 GYN       0.0245
     75 H38         2.7353   30.6751   -4.5268 H           1 GYN       0.0369
     76 H39         1.2023   29.9035   -4.8398 H           1 GYN       0.0369
     77 H40         3.9734   28.7900   -5.3020 H           1 GYN       0.0520
     78 H41         2.7419   29.1312   -6.4860 H           1 GYN       0.0520
     79 H42        -0.5951   26.4738   -5.8542 H           1 GYN       0.0507
     80 H43         0.0249   25.8291   -4.3308 H           1 GYN       0.0507
     81 H44         0.7476   25.0516   -7.1812 H           1 GYN       0.0277
     82 H45         0.4085   24.0120   -5.7930 H           1 GYN       0.0277
     83 H46         2.4783   24.6099   -4.7341 H           1 GYN       0.0210
     84 H47         2.8522   24.0000   -6.3251 H           1 GYN       0.0210
@<TRIPOS>BOND
     1     1     2   2
     2     2     3   1
     3     2     6   1
     4     3     4   1
     5     4     5   1
     6     4     8   1
     7     5     6   1
     8     6     7   1
     9     8     9   2
    10     8    14   1
    11     9    10   1
    12     9    11   1
    13    11    12   1
    14    11    15   1
    15    12    13   1
    16    12    33   1
    17    12    37   1
    18    13    14   1
    19    15    16   2
    20    16    17   1
    21    16    18   1
    22    18    19   1
    23    18    20   1
    24    20    21   1
    25    21    22   1
    26    22    23   1
    27    22    26   1
    28    23    24   1
    29    24    25   1
    30    24    27   1
    31    26    27   1
    32    27    28   1
    33    28    29   1
    34    28    30   2
    35    30    31   1
    36    31    32   1
    37    32    33   1
    38    33    34   2
    39    34    35   1
    40    35    36   1
    41    36    37   1
    42     4    38   1
    43     5    39   1
    44     5    40   1
    45     6    41   1
    46     7    42   1
    47     7    43   1
    48     7    44   1
    49    10    45   1
    50    10    46   1
    51    10    47   1
    52    11    48   1
    53    13    49   1
    54    13    50   1
    55    14    51   1
    56    14    52   1
    57    15    53   1
    58    17    54   1
    59    17    55   1
    60    17    56   1
    61    18    57   1
    62    19    58   1
    63    20    59   1
    64    20    60   1
    65    21    61   1
    66    21    62   1
    67    22    63   1
    68    23    64   1
    69    23    65   1
    70    24    66   1
    71    25    67   1
    72    25    68   1
    73    25    69   1
    74    27    70   1
    75    29    71   1
    76    29    72   1
    77    29    73   1
    78    30    74   1
    79    31    75   1
    80    31    76   1
    81    32    77   1
    82    32    78   1
    83    35    79   1
    84    35    80   1
    85    36    81   1
    86    36    82   1
    87    37    83   1
    88    37    84   1
@<TRIPOS>SUBSTRUCTURE
     1  GYN      2

