@<TRIPOS>MOLECULE
2x00_ligand_001
    84    88
SMALL
GAST_HUCK
****
This file was generated by PARSER (from files_GN.cpp)

@<TRIPOS>ATOM
      1 O6          2.7002   29.4553    3.8582 O.2         1 GYN      -0.3700
      2 C5          1.6653   28.8182    3.2728 C.2         1 GYN       0.2385
      3 O1          1.8461   27.8694    2.3313 O.3         1 GYN      -0.2655
      4 C2          0.6312   27.2807    1.8765 C.3         1 GYN       0.1059
      5 C3         -0.4728   27.9750    2.7477 C.3         1 GYN       0.0041
      6 C4          0.2564   29.0533    3.6046 C.3         1 GYN       0.0613
      7 C7         -0.1553   30.5189    3.3130 C.3         1 GYN      -0.0438
      8 C8          0.5741   27.3655    0.3835 C.2         1 GYN      -0.0559
      9 C13         0.9050   26.3278   -0.4483 C.2         1 GYN      -0.0876
     10 C14         0.8903   24.9543    0.0783 C.3         1 GYN      -0.0498
     11 C12         1.1678   26.5003   -1.9197 C.3         1 GYN      -0.0250
     12 C27         1.2866   28.0109   -2.4234 C.3         1 GYN       0.0148
     13 C10         0.1161   28.7710   -1.7047 C.3         1 GYN      -0.0494
     14 C9          0.2627   28.6979   -0.1641 C.3         1 GYN      -0.0395
     15 C15         2.3272   25.6872   -2.3683 C.2         1 GYN      -0.1023
     16 C16         2.3617   24.5764   -3.1502 C.2         1 GYN      -0.0548
     17 C19         1.1328   23.9970   -3.7050 C.3         1 GYN      -0.0377
     18 C17         3.6002   23.7659   -3.1937 C.3         1 GYN       0.0804
     19 O20         3.3554   22.6702   -2.3078 O.3         1 GYN      -0.3807
     20 C18         4.1224   23.2013   -4.5576 C.3         1 GYN      -0.0158
     21 C21         4.9565   24.1576   -5.4534 C.3         1 GYN      -0.0223
     22 C43         4.1646   25.3021   -6.1331 C.3         1 GYN       0.0623
     23 C47         5.0156   26.1415   -7.1018 C.3         1 GYN      -0.0197
     24 C48         3.9457   26.8215   -7.9722 C.3         1 GYN      -0.0066
     25 C49         4.4543   27.2148   -9.3823 C.3         1 GYN      -0.0582
     26 O43         3.0871   24.8074   -6.9451 O.3         1 GYN      -0.3622
     27 C37         2.7756   25.7889   -7.9602 C.3         1 GYN       0.0865
     28 C36         1.4588   26.4360   -7.7917 C.2         1 GYN      -0.0553
     29 C38         0.7639   26.9669   -8.9628 C.3         1 GYN      -0.0379
     30 C35         0.9980   26.6776   -6.5448 C.2         1 GYN      -0.1039
     31 C34        -0.0839   27.5726   -6.1541 C.3         1 GYN      -0.0315
     32 C33        -0.1673   27.8179   -4.6101 C.3         1 GYN       0.0100
     33 C32         1.0798   28.1783   -3.9020 C.2         1 GYN       0.0383
     34 N31         1.9499   28.7894   -4.6349 N.2         1 GYN      -0.2722
     35 C30         3.2138   29.2853   -4.3437 C.3         1 GYN       0.0432
     36 C46         3.7864   28.6676   -3.0543 C.3         1 GYN      -0.0375
     37 C28         2.6719   28.6713   -1.9757 C.3         1 GYN      -0.0530
     38 H1          0.6877   26.2525    2.2330 H           1 GYN       0.0753
     39 H2         -0.9217   27.2377    3.4205 H           1 GYN       0.0338
     40 H3         -1.2938   28.3826    2.1688 H           1 GYN       0.0338
     41 H4          0.0991   28.8608    4.6692 H           1 GYN       0.0553
     42 H5          0.3908   31.1992    3.9717 H           1 GYN       0.0258
     43 H6         -1.2219   30.6619    3.4944 H           1 GYN       0.0258
     44 H7          0.0644   30.7855    2.2793 H           1 GYN       0.0258
     45 H8         -0.0356   24.7641    0.6273 H           1 GYN       0.0329
     46 H9          1.7468   24.8121    0.7402 H           1 GYN       0.0329
     47 H10         0.9507   24.1871   -0.6863 H           1 GYN       0.0329
     48 H11         0.2696   26.0862   -2.3660 H           1 GYN       0.0417
     49 H12        -0.8602   28.3376   -1.9677 H           1 GYN       0.0226
     50 H13         0.0825   29.8218   -2.0085 H           1 GYN       0.0226
     51 H14         1.0376   29.3971    0.1521 H           1 GYN       0.0362
     52 H15        -0.6778   29.0717    0.2278 H           1 GYN       0.0362
     53 H16         3.1780   25.9385   -1.9239 H           1 GYN       0.0252
     54 H17         0.4524   23.7271   -2.9016 H           1 GYN       0.0377
     55 H18         1.2999   23.0862   -4.2768 H           1 GYN       0.0377
     56 H19         0.6302   24.7031   -4.3601 H           1 GYN       0.0377
     57 H20         4.4433   24.3123   -2.7560 H           1 GYN       0.0742
     58 H21         4.0269   22.7564   -1.6010 H           1 GYN       0.2129
     59 H22         3.3171   22.7698   -5.1517 H           1 GYN       0.0312
     60 H23         4.7922   22.3722   -4.3173 H           1 GYN       0.0312
     61 H24         5.4198   23.5519   -6.2379 H           1 GYN       0.0293
     62 H25         5.7651   24.5898   -4.8570 H           1 GYN       0.0293
     63 H26         3.7698   25.9566   -5.3499 H           1 GYN       0.0598
     64 H27         5.6567   25.4962   -7.7103 H           1 GYN       0.0295
     65 H28         5.6343   26.8673   -6.5674 H           1 GYN       0.0295
     66 H29         3.6448   27.7442   -7.4612 H           1 GYN       0.0345
     67 H30         3.6593   27.7100   -9.9420 H           1 GYN       0.0235
     68 H31         4.7775   26.3331   -9.9395 H           1 GYN       0.0235
     69 H32         5.2972   27.9038   -9.2964 H           1 GYN       0.0235
     70 H33         2.7745   25.2143   -8.8910 H           1 GYN       0.0747
     71 H34        -0.2690   26.6155   -8.9739 H           1 GYN       0.0376
     72 H35         1.2276   26.6539   -9.8999 H           1 GYN       0.0376
     73 H36         0.7661   28.0582   -8.9403 H           1 GYN       0.0376
     74 H37         1.5042   26.2796   -5.7978 H           1 GYN       0.0245
     75 H38        -1.0341   27.1591   -6.5026 H           1 GYN       0.0369
     76 H39         0.0593   28.5414   -6.6396 H           1 GYN       0.0369
     77 H40        -0.6053   26.9194   -4.1832 H           1 GYN       0.0520
     78 H41        -0.8834   28.6246   -4.4461 H           1 GYN       0.0520
     79 H42         3.1404   30.3699   -4.2411 H           1 GYN       0.0507
     80 H43         3.8789   29.0647   -5.1810 H           1 GYN       0.0507
     81 H44         4.6481   29.2523   -2.7161 H           1 GYN       0.0277
     82 H45         4.1318   27.6542   -3.2630 H           1 GYN       0.0277
     83 H46         3.0690   28.1977   -1.0733 H           1 GYN       0.0210
     84 H47         2.5213   29.7223   -1.7204 H           1 GYN       0.0210
@<TRIPOS>BOND
     1     1     2   2
     2     2     3   1
     3     2     6   1
     4     3     4   1
     5     4     5   1
     6     4     8   1
     7     5     6   1
     8     6     7   1
     9     8     9   2
    10     8    14   1
    11     9    10   1
    12     9    11   1
    13    11    12   1
    14    11    15   1
    15    12    13   1
    16    12    33   1
    17    12    37   1
    18    13    14   1
    19    15    16   2
    20    16    17   1
    21    16    18   1
    22    18    19   1
    23    18    20   1
    24    20    21   1
    25    21    22   1
    26    22    23   1
    27    22    26   1
    28    23    24   1
    29    24    25   1
    30    24    27   1
    31    26    27   1
    32    27    28   1
    33    28    29   1
    34    28    30   2
    35    30    31   1
    36    31    32   1
    37    32    33   1
    38    33    34   2
    39    34    35   1
    40    35    36   1
    41    36    37   1
    42     4    38   1
    43     5    39   1
    44     5    40   1
    45     6    41   1
    46     7    42   1
    47     7    43   1
    48     7    44   1
    49    10    45   1
    50    10    46   1
    51    10    47   1
    52    11    48   1
    53    13    49   1
    54    13    50   1
    55    14    51   1
    56    14    52   1
    57    15    53   1
    58    17    54   1
    59    17    55   1
    60    17    56   1
    61    18    57   1
    62    19    58   1
    63    20    59   1
    64    20    60   1
    65    21    61   1
    66    21    62   1
    67    22    63   1
    68    23    64   1
    69    23    65   1
    70    24    66   1
    71    25    67   1
    72    25    68   1
    73    25    69   1
    74    27    70   1
    75    29    71   1
    76    29    72   1
    77    29    73   1
    78    30    74   1
    79    31    75   1
    80    31    76   1
    81    32    77   1
    82    32    78   1
    83    35    79   1
    84    35    80   1
    85    36    81   1
    86    36    82   1
    87    37    83   1
    88    37    84   1
@<TRIPOS>SUBSTRUCTURE
     1  GYN      2

