@<TRIPOS>MOLECULE
2x00_ligand_088
    84    88
SMALL
GAST_HUCK
****
This file was generated by PARSER (from files_GN.cpp)

@<TRIPOS>ATOM
      1 O6          4.2382   26.7107   -3.9651 O.2         1 GYN      -0.3700
      2 C5          5.1580   26.0070   -4.6614 C.2         1 GYN       0.2385
      3 O1          5.9152   26.5698   -5.6217 O.3         1 GYN      -0.2655
      4 C2          6.8532   25.6657   -6.2026 C.3         1 GYN       0.1059
      5 C3          6.6016   24.3246   -5.4516 C.3         1 GYN       0.0041
      6 C4          5.4670   24.5966   -4.4257 C.3         1 GYN       0.0613
      7 C7          4.2212   23.6906   -4.5879 C.3         1 GYN      -0.0438
      8 C8          6.7290   25.6276   -7.6862 C.2         1 GYN      -0.0559
      9 C13         7.7014   26.0651   -8.5402 C.2         1 GYN      -0.0876
     10 C14         9.0854   26.2104   -8.0502 C.3         1 GYN      -0.0498
     11 C12         7.4717   26.2396  -10.0112 C.3         1 GYN      -0.0250
     12 C27         5.9530   26.1593  -10.4935 C.3         1 GYN       0.0148
     13 C10         5.3609   24.9200   -9.7331 C.3         1 GYN      -0.0494
     14 C9          5.4543   25.0925   -8.1964 C.3         1 GYN      -0.0395
     15 C15         8.1443   27.4600  -10.5137 C.2         1 GYN      -0.1023
     16 C16         9.2355   27.5627  -11.3167 C.2         1 GYN      -0.0548
     17 C19         9.8660   26.3666  -11.8820 C.3         1 GYN      -0.0377
     18 C17         9.9639   28.8507  -11.3969 C.3         1 GYN       0.0804
     19 O20        11.1058   28.6903  -10.5509 O.3         1 GYN      -0.3807
     20 C18        10.4494   29.3808  -12.7881 C.3         1 GYN      -0.0158
     21 C21         9.4067   30.1171  -13.6717 C.3         1 GYN      -0.0223
     22 C43         8.3382   29.2086  -14.3264 C.3         1 GYN       0.0623
     23 C47         7.4074   29.9532  -15.2983 C.3         1 GYN      -0.0197
     24 C48         6.8287   28.8015  -16.1381 C.3         1 GYN      -0.0066
     25 C49         6.3643   29.2381  -17.5500 C.3         1 GYN      -0.0582
     26 O43         8.9308   28.1736  -15.1299 O.3         1 GYN      -0.3622
     27 C37         7.9743   27.7434  -16.1251 C.3         1 GYN       0.0865
     28 C36         7.4706   26.3696  -15.9186 C.2         1 GYN      -0.0553
     29 C38         7.0385   25.5771  -17.0675 C.3         1 GYN      -0.0379
     30 C35         7.2690   25.9321  -14.6573 C.2         1 GYN      -0.1039
     31 C34         6.5233   24.7629  -14.2146 C.3         1 GYN      -0.0315
     32 C33         6.3039   24.7047  -12.6623 C.3         1 GYN       0.0100
     33 C32         5.8171   25.9221  -11.9707 C.2         1 GYN       0.0383
     34 N31         5.1590   26.7445  -12.7207 N.2         1 GYN      -0.2722
     35 C30         4.5378   27.9575  -12.4482 C.3         1 GYN       0.0432
     36 C46         5.0198   28.5663  -11.1192 C.3         1 GYN      -0.0375
     37 C28         5.1171   27.4440  -10.0560 C.3         1 GYN      -0.0530
     38 H1          7.8231   26.0454   -5.8773 H           1 GYN       0.0753
     39 H2          7.5044   24.0302   -4.9149 H           1 GYN       0.0338
     40 H3          6.3513   23.5102   -6.1370 H           1 GYN       0.0338
     41 H4          5.8538   24.4870   -3.4068 H           1 GYN       0.0553
     42 H5          3.4875   23.9121   -3.8092 H           1 GYN       0.0258
     43 H6          4.5203   22.6478   -4.4902 H           1 GYN       0.0258
     44 H7          3.7505   23.8316   -5.5636 H           1 GYN       0.0258
     45 H8          9.3753   25.3425   -7.4565 H           1 GYN       0.0329
     46 H9          9.1664   27.1101   -7.4404 H           1 GYN       0.0329
     47 H10         9.8267   26.2933   -8.8406 H           1 GYN       0.0329
     48 H11         7.9723   25.3654  -10.4190 H           1 GYN       0.0417
     49 H12         5.9142   24.0126   -9.9952 H           1 GYN       0.0226
     50 H13         4.3161   24.7453  -10.0050 H           1 GYN       0.0226
     51 H14         4.6433   25.7489   -7.8728 H           1 GYN       0.0362
     52 H15         5.2607   24.1105   -7.7597 H           1 GYN       0.0362
     53 H16         7.8267   28.2969  -10.0833 H           1 GYN       0.0252
     54 H17        10.1696   25.6833  -11.0916 H           1 GYN       0.0377
     55 H18        10.7550   26.5892  -12.4622 H           1 GYN       0.0377
     56 H19         9.1833   25.8384  -12.5362 H           1 GYN       0.0377
     57 H20         9.3814   29.6618  -10.9499 H           1 GYN       0.0742
     58 H21        11.5084   29.5813  -10.4721 H           1 GYN       0.2129
     59 H22        10.9192   28.5932  -13.3759 H           1 GYN       0.0312
     60 H23        11.2376   30.1146  -12.5939 H           1 GYN       0.0312
     61 H24         9.9542   30.6275  -14.4697 H           1 GYN       0.0293
     62 H25         8.9077   30.8852  -13.0748 H           1 GYN       0.0293
     63 H26         7.7351   28.7667  -13.5280 H           1 GYN       0.0598
     64 H27         7.9800   30.6423  -15.9264 H           1 GYN       0.0295
     65 H28         6.6282   30.5077  -14.7677 H           1 GYN       0.0295
     66 H29         5.9505   28.4156  -15.6064 H           1 GYN       0.0345
     67 H30         5.9439   28.3847  -18.0843 H           1 GYN       0.0235
     68 H31         7.2003   29.6370  -18.1280 H           1 GYN       0.0235
     69 H32         5.5951   30.0083  -17.4681 H           1 GYN       0.0235
     70 H33         8.5323   27.7844  -17.0654 H           1 GYN       0.0747
     71 H34         7.5395   24.6072  -17.0608 H           1 GYN       0.0376
     72 H35         7.2699   26.0618  -18.0178 H           1 GYN       0.0376
     73 H36         5.9586   25.4192  -17.0339 H           1 GYN       0.0376
     74 H37         7.5828   26.5198  -13.9341 H           1 GYN       0.0245
     75 H38         7.0535   23.8615  -14.5330 H           1 GYN       0.0369
     76 H39         5.5459   24.7634  -14.7003 H           1 GYN       0.0369
     77 H40         7.2516   24.3849  -12.2368 H           1 GYN       0.0520
     78 H41         5.5920   23.9002  -12.4617 H           1 GYN       0.0520
     79 H42         3.4583   27.7895  -12.4130 H           1 GYN       0.0507
     80 H43         4.7437   28.6549  -13.2624 H           1 GYN       0.0507
     81 H44         4.3166   29.3369  -10.7907 H           1 GYN       0.0277
     82 H45         5.9865   29.0451  -11.2751 H           1 GYN       0.0277
     83 H46         5.5198   27.8787   -9.1375 H           1 GYN       0.0210
     84 H47         4.0831   27.1572   -9.8381 H           1 GYN       0.0210
@<TRIPOS>BOND
     1     1     2   2
     2     2     3   1
     3     2     6   1
     4     3     4   1
     5     4     5   1
     6     4     8   1
     7     5     6   1
     8     6     7   1
     9     8     9   2
    10     8    14   1
    11     9    10   1
    12     9    11   1
    13    11    12   1
    14    11    15   1
    15    12    13   1
    16    12    33   1
    17    12    37   1
    18    13    14   1
    19    15    16   2
    20    16    17   1
    21    16    18   1
    22    18    19   1
    23    18    20   1
    24    20    21   1
    25    21    22   1
    26    22    23   1
    27    22    26   1
    28    23    24   1
    29    24    25   1
    30    24    27   1
    31    26    27   1
    32    27    28   1
    33    28    29   1
    34    28    30   2
    35    30    31   1
    36    31    32   1
    37    32    33   1
    38    33    34   2
    39    34    35   1
    40    35    36   1
    41    36    37   1
    42     4    38   1
    43     5    39   1
    44     5    40   1
    45     6    41   1
    46     7    42   1
    47     7    43   1
    48     7    44   1
    49    10    45   1
    50    10    46   1
    51    10    47   1
    52    11    48   1
    53    13    49   1
    54    13    50   1
    55    14    51   1
    56    14    52   1
    57    15    53   1
    58    17    54   1
    59    17    55   1
    60    17    56   1
    61    18    57   1
    62    19    58   1
    63    20    59   1
    64    20    60   1
    65    21    61   1
    66    21    62   1
    67    22    63   1
    68    23    64   1
    69    23    65   1
    70    24    66   1
    71    25    67   1
    72    25    68   1
    73    25    69   1
    74    27    70   1
    75    29    71   1
    76    29    72   1
    77    29    73   1
    78    30    74   1
    79    31    75   1
    80    31    76   1
    81    32    77   1
    82    32    78   1
    83    35    79   1
    84    35    80   1
    85    36    81   1
    86    36    82   1
    87    37    83   1
    88    37    84   1
@<TRIPOS>SUBSTRUCTURE
     1  GYN      2

