@<TRIPOS>MOLECULE
2x00_ligand_039
    84    88
SMALL
GAST_HUCK
****
This file was generated by PARSER (from files_GN.cpp)

@<TRIPOS>ATOM
      1 O6          7.7193   26.1229   -3.2895 O.2         1 GYN      -0.3700
      2 C5          6.9270   25.7173   -4.3037 C.2         1 GYN       0.2385
      3 O1          6.3286   26.5852   -5.1405 O.3         1 GYN      -0.2655
      4 C2          5.6479   25.9493   -6.2165 C.3         1 GYN       0.1059
      5 C3          5.8588   24.4257   -5.9622 C.3         1 GYN       0.0041
      6 C4          6.6830   24.3196   -4.6499 C.3         1 GYN       0.0613
      7 C7          5.9912   23.5699   -3.4822 C.3         1 GYN      -0.0438
      8 C8          4.2519   26.4542   -6.3486 C.2         1 GYN      -0.0559
      9 C13         3.7864   27.1318   -7.4454 C.2         1 GYN      -0.0876
     10 C14         4.5645   27.0943   -8.6990 C.3         1 GYN      -0.0498
     11 C12         2.4411   27.8077   -7.4809 C.3         1 GYN      -0.0250
     12 C27         1.7120   27.9689   -6.0664 C.3         1 GYN       0.0148
     13 C10         1.9101   26.5905   -5.3476 C.3         1 GYN      -0.0494
     14 C9          3.4075   26.2506   -5.1600 C.3         1 GYN      -0.0395
     15 C15         2.4964   29.1001   -8.2095 C.2         1 GYN      -0.1023
     16 C16         2.0021   29.4389   -9.4290 C.2         1 GYN      -0.0548
     17 C19         1.3008   28.4498  -10.2560 C.3         1 GYN      -0.0377
     18 C17         2.3858   30.7359  -10.0404 C.3         1 GYN       0.0804
     19 O20         3.3424   30.4439  -11.0622 O.3         1 GYN      -0.3807
     20 C18         1.2805   31.6426  -10.6742 C.3         1 GYN      -0.0158
     21 C21         0.3904   32.4728   -9.7062 C.3         1 GYN      -0.0223
     22 C43        -0.6943   31.6696   -8.9449 C.3         1 GYN       0.0623
     23 C47        -1.6687   32.5365   -8.1095 C.3         1 GYN      -0.0197
     24 C48        -3.0664   32.2084   -8.6785 C.3         1 GYN      -0.0066
     25 C49        -3.5611   33.2780   -9.6903 C.3         1 GYN      -0.0582
     26 O43        -1.5159   30.9412   -9.8765 O.3         1 GYN      -0.3622
     27 C37        -2.8497   30.8180   -9.3421 C.3         1 GYN       0.0865
     28 C36        -3.1073   29.6669   -8.4479 C.2         1 GYN      -0.0553
     29 C38        -4.4652   29.4417   -7.9585 C.3         1 GYN      -0.0379
     30 C35        -2.1086   28.8186   -8.1046 C.2         1 GYN      -0.1039
     31 C34        -2.1474   27.7517   -7.1174 C.3         1 GYN      -0.0315
     32 C33        -0.7254   27.2384   -6.7138 C.3         1 GYN       0.0100
     33 C32         0.2346   28.2247   -6.1756 C.2         1 GYN       0.0383
     34 N31        -0.3090   29.2632   -5.6334 N.2         1 GYN      -0.2722
     35 C30         0.2414   30.3504   -4.9682 C.3         1 GYN       0.0432
     36 C46         1.7548   30.4872   -5.2215 C.3         1 GYN      -0.0375
     37 C28         2.4033   29.0833   -5.1600 C.3         1 GYN      -0.0530
     38 H1          6.2625   26.2044   -7.0768 H           1 GYN       0.0753
     39 H2          6.4468   23.9932   -6.7815 H           1 GYN       0.0338
     40 H3          4.9148   23.8732   -5.9051 H           1 GYN       0.0338
     41 H4          7.6404   23.8393   -4.8567 H           1 GYN       0.0553
     42 H5          6.6570   23.5328   -2.6134 H           1 GYN       0.0258
     43 H6          5.7658   22.5450   -3.7856 H           1 GYN       0.0258
     44 H7          5.0604   24.0651   -3.1879 H           1 GYN       0.0258
     45 H8          4.0342   27.4753   -9.5654 H           1 GYN       0.0329
     46 H9          4.8438   26.0674   -8.9449 H           1 GYN       0.0329
     47 H10         5.4618   27.7067   -8.5913 H           1 GYN       0.0329
     48 H11         1.8452   27.1110   -8.0684 H           1 GYN       0.0417
     49 H12         1.4728   25.7868   -5.9455 H           1 GYN       0.0226
     50 H13         1.4085   26.5830   -4.3751 H           1 GYN       0.0226
     51 H14         3.8031   26.8598   -4.3433 H           1 GYN       0.0362
     52 H15         3.4585   25.2088   -4.8333 H           1 GYN       0.0362
     53 H16         3.0836   29.7716   -7.7749 H           1 GYN       0.0252
     54 H17         0.4109   28.0853   -9.7535 H           1 GYN       0.0377
     55 H18         1.9418   27.5955  -10.4689 H           1 GYN       0.0377
     56 H19         0.9911   28.8488  -11.2159 H           1 GYN       0.0377
     57 H20         2.9163   31.3724   -9.3251 H           1 GYN       0.0742
     58 H21         4.1176   30.0570  -10.6002 H           1 GYN       0.2129
     59 H22         0.6439   31.0709  -11.3487 H           1 GYN       0.0312
     60 H23         1.7954   32.3750  -11.3030 H           1 GYN       0.0312
     61 H24        -0.1172   33.2400  -10.2988 H           1 GYN       0.0293
     62 H25         1.0282   32.9894   -8.9838 H           1 GYN       0.0293
     63 H26        -0.1799   30.9741   -8.2788 H           1 GYN       0.0598
     64 H27        -1.4398   33.6045   -8.1641 H           1 GYN       0.0295
     65 H28        -1.6246   32.2394   -7.0586 H           1 GYN       0.0295
     66 H29        -3.7957   32.1654   -7.8643 H           1 GYN       0.0345
     67 H30        -4.5341   32.9906  -10.0939 H           1 GYN       0.0235
     68 H31        -2.8579   33.3892  -10.5189 H           1 GYN       0.0235
     69 H32        -3.6705   34.2441   -9.1925 H           1 GYN       0.0235
     70 H33        -3.5129   30.6937  -10.2034 H           1 GYN       0.0747
     71 H34        -4.7987   28.4355   -8.2204 H           1 GYN       0.0376
     72 H35        -5.1809   30.1445   -8.3910 H           1 GYN       0.0376
     73 H36        -4.4999   29.5570   -6.8736 H           1 GYN       0.0376
     74 H37        -1.2357   28.9591   -8.5300 H           1 GYN       0.0245
     75 H38        -2.7315   26.9188   -7.5204 H           1 GYN       0.0369
     76 H39        -2.6479   28.1036   -6.2123 H           1 GYN       0.0369
     77 H40        -0.3089   26.7473   -7.5930 H           1 GYN       0.0520
     78 H41        -0.8718   26.4634   -5.9569 H           1 GYN       0.0520
     79 H42         0.0524   30.2241   -3.8997 H           1 GYN       0.0507
     80 H43        -0.2622   31.2617   -5.2930 H           1 GYN       0.0507
     81 H44         2.1940   31.1385   -4.4593 H           1 GYN       0.0277
     82 H45         1.9185   30.9569   -6.1927 H           1 GYN       0.0277
     83 H46         3.4645   29.1852   -5.4019 H           1 GYN       0.0210
     84 H47         2.3519   28.7925   -4.1070 H           1 GYN       0.0210
@<TRIPOS>BOND
     1     1     2   2
     2     2     3   1
     3     2     6   1
     4     3     4   1
     5     4     5   1
     6     4     8   1
     7     5     6   1
     8     6     7   1
     9     8     9   2
    10     8    14   1
    11     9    10   1
    12     9    11   1
    13    11    12   1
    14    11    15   1
    15    12    13   1
    16    12    33   1
    17    12    37   1
    18    13    14   1
    19    15    16   2
    20    16    17   1
    21    16    18   1
    22    18    19   1
    23    18    20   1
    24    20    21   1
    25    21    22   1
    26    22    23   1
    27    22    26   1
    28    23    24   1
    29    24    25   1
    30    24    27   1
    31    26    27   1
    32    27    28   1
    33    28    29   1
    34    28    30   2
    35    30    31   1
    36    31    32   1
    37    32    33   1
    38    33    34   2
    39    34    35   1
    40    35    36   1
    41    36    37   1
    42     4    38   1
    43     5    39   1
    44     5    40   1
    45     6    41   1
    46     7    42   1
    47     7    43   1
    48     7    44   1
    49    10    45   1
    50    10    46   1
    51    10    47   1
    52    11    48   1
    53    13    49   1
    54    13    50   1
    55    14    51   1
    56    14    52   1
    57    15    53   1
    58    17    54   1
    59    17    55   1
    60    17    56   1
    61    18    57   1
    62    19    58   1
    63    20    59   1
    64    20    60   1
    65    21    61   1
    66    21    62   1
    67    22    63   1
    68    23    64   1
    69    23    65   1
    70    24    66   1
    71    25    67   1
    72    25    68   1
    73    25    69   1
    74    27    70   1
    75    29    71   1
    76    29    72   1
    77    29    73   1
    78    30    74   1
    79    31    75   1
    80    31    76   1
    81    32    77   1
    82    32    78   1
    83    35    79   1
    84    35    80   1
    85    36    81   1
    86    36    82   1
    87    37    83   1
    88    37    84   1
@<TRIPOS>SUBSTRUCTURE
     1  GYN      2

