@<TRIPOS>MOLECULE
2x00_ligand_026
    84    88
SMALL
GAST_HUCK
****
This file was generated by PARSER (from files_GN.cpp)

@<TRIPOS>ATOM
      1 O6          7.0267   23.3948   -3.5188 O.2         1 GYN      -0.3700
      2 C5          6.1237   24.2910   -3.0627 C.2         1 GYN       0.2385
      3 O1          4.8065   24.0319   -3.0625 O.3         1 GYN      -0.2655
      4 C2          4.0177   25.0748   -2.4976 C.3         1 GYN       0.1059
      5 C3          5.0895   26.0978   -2.0071 C.3         1 GYN       0.0041
      6 C4          6.4745   25.5768   -2.4700 C.3         1 GYN       0.0613
      7 C7          7.1958   26.4959   -3.4876 C.3         1 GYN      -0.0438
      8 C8          2.9535   25.7036   -3.3233 C.2         1 GYN      -0.0559
      9 C13         2.7816   25.5600   -4.6694 C.2         1 GYN      -0.0876
     10 C14         3.2492   24.3388   -5.3498 C.3         1 GYN      -0.0498
     11 C12         1.9842   26.5366   -5.4911 C.3         1 GYN      -0.0250
     12 C27         1.4771   27.8403   -4.7098 C.3         1 GYN       0.0148
     13 C10         0.9490   27.2906   -3.3384 C.3         1 GYN      -0.0494
     14 C9          2.0634   26.5790   -2.5421 C.3         1 GYN      -0.0395
     15 C15         2.7432   26.8744   -6.7141 C.2         1 GYN      -0.1023
     16 C16         2.4647   26.5861   -8.0131 C.2         1 GYN      -0.0548
     17 C19         1.2130   25.9418   -8.4106 C.3         1 GYN      -0.0377
     18 C17         3.4924   26.8044   -9.0527 C.3         1 GYN       0.0804
     19 O20         3.8539   25.5575   -9.6668 O.3         1 GYN      -0.3807
     20 C18         3.1236   27.8343  -10.1658 C.3         1 GYN      -0.0158
     21 C21         3.2547   29.3358   -9.7689 C.3         1 GYN      -0.0223
     22 C43         2.0586   29.9506   -8.9915 C.3         1 GYN       0.0623
     23 C47         2.2505   31.4424   -8.6363 C.3         1 GYN      -0.0197
     24 C48         0.9172   32.1185   -9.0328 C.3         1 GYN      -0.0066
     25 C49         1.0746   33.1054  -10.2231 C.3         1 GYN      -0.0582
     26 O43         0.8739   29.8937   -9.7946 O.3         1 GYN      -0.3622
     27 C37        -0.0358   30.9304   -9.3757 C.3         1 GYN       0.0865
     28 C36        -0.9929   30.5589   -8.3088 C.2         1 GYN      -0.0553
     29 C38        -1.9087   31.5869   -7.8110 C.3         1 GYN      -0.0379
     30 C35        -1.0998   29.2812   -7.8839 C.2         1 GYN      -0.1039
     31 C34        -1.8370   28.7747   -6.7293 C.3         1 GYN      -0.0315
     32 C33        -0.9350   27.9704   -5.7438 C.3         1 GYN       0.0100
     33 C32         0.3281   28.5952   -5.3140 C.2         1 GYN       0.0383
     34 N31         0.2234   29.8714   -5.1272 N.2         1 GYN      -0.2722
     35 C30         1.0738   30.7974   -4.5263 C.3         1 GYN       0.0432
     36 C46         2.2565   30.1486   -3.7707 C.3         1 GYN      -0.0375
     37 C28         2.6803   28.8622   -4.5101 C.3         1 GYN      -0.0530
     38 H1          3.5529   24.6093   -1.6242 H           1 GYN       0.0753
     39 H2          5.0614   26.1606   -0.9111 H           1 GYN       0.0338
     40 H3          4.9119   27.1008   -2.4079 H           1 GYN       0.0338
     41 H4          7.1197   25.4185   -1.6021 H           1 GYN       0.0553
     42 H5          8.1118   26.0190   -3.8480 H           1 GYN       0.0258
     43 H6          7.4668   27.4354   -3.0021 H           1 GYN       0.0258
     44 H7          6.5468   26.7153   -4.3410 H           1 GYN       0.0258
     45 H8          2.8128   24.2148   -6.3388 H           1 GYN       0.0329
     46 H9          2.9541   23.4471   -4.7932 H           1 GYN       0.0329
     47 H10         4.3349   24.3633   -5.4644 H           1 GYN       0.0329
     48 H11         1.1027   25.9632   -5.7675 H           1 GYN       0.0417
     49 H12         0.1533   26.5577   -3.5156 H           1 GYN       0.0226
     50 H13         0.5140   28.0802   -2.7187 H           1 GYN       0.0226
     51 H14         2.6548   27.3443   -2.0304 H           1 GYN       0.0362
     52 H15         1.5732   25.9846   -1.7638 H           1 GYN       0.0362
     53 H16         3.6374   27.2694   -6.5378 H           1 GYN       0.0252
     54 H17         1.1201   24.9706   -7.9310 H           1 GYN       0.0377
     55 H18         1.1529   25.7742   -9.4872 H           1 GYN       0.0377
     56 H19         0.3603   26.5500   -8.1352 H           1 GYN       0.0377
     57 H20         4.4328   27.1534   -8.6181 H           1 GYN       0.0742
     58 H21         3.5385   24.8281   -9.0929 H           1 GYN       0.2129
     59 H22         2.1247   27.6393  -10.5614 H           1 GYN       0.0312
     60 H23         3.8182   27.6667  -10.9953 H           1 GYN       0.0312
     61 H24         3.3810   29.9126  -10.6902 H           1 GYN       0.0293
     62 H25         4.1653   29.4733   -9.1821 H           1 GYN       0.0293
     63 H26         1.8953   29.3827   -8.0718 H           1 GYN       0.0598
     64 H27         3.0996   31.8840   -9.1657 H           1 GYN       0.0295
     65 H28         2.4391   31.5517   -7.5645 H           1 GYN       0.0295
     66 H29         0.5575   32.7015   -8.1792 H           1 GYN       0.0345
     67 H30         0.1103   33.5578  -10.4622 H           1 GYN       0.0235
     68 H31         1.4483   32.5872  -11.1089 H           1 GYN       0.0235
     69 H32         1.7713   33.9048   -9.9629 H           1 GYN       0.0235
     70 H33        -0.6482   31.1655  -10.2511 H           1 GYN       0.0747
     71 H34        -2.9435   31.2442   -7.8906 H           1 GYN       0.0376
     72 H35        -1.8400   32.5191   -8.3756 H           1 GYN       0.0376
     73 H36        -1.6835   31.8110   -6.7661 H           1 GYN       0.0376
     74 H37        -0.6131   28.5877   -8.3938 H           1 GYN       0.0245
     75 H38        -2.6318   28.1188   -7.0957 H           1 GYN       0.0369
     76 H39        -2.3206   29.5723   -6.1626 H           1 GYN       0.0369
     77 H40        -0.7565   27.0031   -6.1985 H           1 GYN       0.0520
     78 H41        -1.5276   27.7769   -4.8467 H           1 GYN       0.0520
     79 H42         0.4895   31.4013   -3.8304 H           1 GYN       0.0507
     80 H43         1.4539   31.4579   -5.3076 H           1 GYN       0.0507
     81 H44         1.9637   29.9099   -2.7471 H           1 GYN       0.0277
     82 H45         3.0982   30.8432   -3.7224 H           1 GYN       0.0277
     83 H46         3.0610   29.1952   -5.4800 H           1 GYN       0.0210
     84 H47         3.5249   28.4111   -3.9884 H           1 GYN       0.0210
@<TRIPOS>BOND
     1     1     2   2
     2     2     3   1
     3     2     6   1
     4     3     4   1
     5     4     5   1
     6     4     8   1
     7     5     6   1
     8     6     7   1
     9     8     9   2
    10     8    14   1
    11     9    10   1
    12     9    11   1
    13    11    12   1
    14    11    15   1
    15    12    13   1
    16    12    33   1
    17    12    37   1
    18    13    14   1
    19    15    16   2
    20    16    17   1
    21    16    18   1
    22    18    19   1
    23    18    20   1
    24    20    21   1
    25    21    22   1
    26    22    23   1
    27    22    26   1
    28    23    24   1
    29    24    25   1
    30    24    27   1
    31    26    27   1
    32    27    28   1
    33    28    29   1
    34    28    30   2
    35    30    31   1
    36    31    32   1
    37    32    33   1
    38    33    34   2
    39    34    35   1
    40    35    36   1
    41    36    37   1
    42     4    38   1
    43     5    39   1
    44     5    40   1
    45     6    41   1
    46     7    42   1
    47     7    43   1
    48     7    44   1
    49    10    45   1
    50    10    46   1
    51    10    47   1
    52    11    48   1
    53    13    49   1
    54    13    50   1
    55    14    51   1
    56    14    52   1
    57    15    53   1
    58    17    54   1
    59    17    55   1
    60    17    56   1
    61    18    57   1
    62    19    58   1
    63    20    59   1
    64    20    60   1
    65    21    61   1
    66    21    62   1
    67    22    63   1
    68    23    64   1
    69    23    65   1
    70    24    66   1
    71    25    67   1
    72    25    68   1
    73    25    69   1
    74    27    70   1
    75    29    71   1
    76    29    72   1
    77    29    73   1
    78    30    74   1
    79    31    75   1
    80    31    76   1
    81    32    77   1
    82    32    78   1
    83    35    79   1
    84    35    80   1
    85    36    81   1
    86    36    82   1
    87    37    83   1
    88    37    84   1
@<TRIPOS>SUBSTRUCTURE
     1  GYN      2

