@<TRIPOS>MOLECULE
2x00_ligand_062
    84    88
SMALL
GAST_HUCK
****
This file was generated by PARSER (from files_GN.cpp)

@<TRIPOS>ATOM
      1 O6          7.7695   20.7287  -12.2644 O.2         1 GYN      -0.3700
      2 C5          8.4070   21.5187  -13.1555 C.2         1 GYN       0.2385
      3 O1          9.1898   22.5353  -12.7645 O.3         1 GYN      -0.2655
      4 C2          9.8083   23.2709  -13.8176 C.3         1 GYN       0.1059
      5 C3          9.3136   22.4872  -15.0809 C.3         1 GYN       0.0041
      6 C4          8.3860   21.3376  -14.6022 C.3         1 GYN       0.0613
      7 C7          6.9523   21.3999  -15.1897 C.3         1 GYN      -0.0438
      8 C8          9.5970   24.7483  -13.8064 C.2         1 GYN      -0.0559
      9 C13         9.0556   25.4742  -12.7793 C.2         1 GYN      -0.0876
     10 C14         9.0439   24.9264  -11.4092 C.3         1 GYN      -0.0498
     11 C12         8.6411   26.9141  -12.9187 C.3         1 GYN      -0.0250
     12 C27         8.7522   27.5128  -14.4002 C.3         1 GYN       0.0148
     13 C10        10.1316   26.9887  -14.9333 C.3         1 GYN      -0.0494
     14 C9         10.1879   25.4456  -14.9635 C.3         1 GYN      -0.0395
     15 C15         7.3088   27.0896  -12.2851 C.2         1 GYN      -0.1023
     16 C16         6.9915   27.6571  -11.0908 C.2         1 GYN      -0.0548
     17 C19         7.9448   28.4971  -10.3612 C.3         1 GYN      -0.0377
     18 C17         5.7310   27.2717  -10.4091 C.3         1 GYN       0.0804
     19 O20         6.0893   26.5031   -9.2542 O.3         1 GYN      -0.3807
     20 C18         4.7443   28.3985   -9.9644 C.3         1 GYN      -0.0158
     21 C21         3.8399   29.0244  -11.0629 C.3         1 GYN      -0.0223
     22 C43         4.5828   29.9298  -12.0747 C.3         1 GYN       0.0623
     23 C47         3.6645   30.6869  -13.0501 C.3         1 GYN      -0.0197
     24 C48         4.5896   31.8117  -13.5453 C.3         1 GYN      -0.0066
     25 C49         3.8332   33.0548  -14.0779 C.3         1 GYN      -0.0582
     26 O43         5.3310   30.9592  -11.4076 O.3         1 GYN      -0.3622
     27 C37         5.4884   32.0795  -12.3014 C.3         1 GYN       0.0865
     28 C36         6.9048   32.3236  -12.6341 C.2         1 GYN      -0.0553
     29 C38         7.4320   33.6866  -12.6402 C.3         1 GYN      -0.0379
     30 C35         7.6851   31.2742  -12.9742 C.2         1 GYN      -0.1039
     31 C34         9.0626   31.3084  -13.4434 C.3         1 GYN      -0.0315
     32 C33         9.6733   29.9033  -13.7560 C.3         1 GYN       0.0100
     33 C32         8.8331   29.0012  -14.5604 C.2         1 GYN       0.0383
     34 N31         8.3788   29.5705  -15.6291 N.2         1 GYN      -0.2722
     35 C30         7.6700   29.0679  -16.7181 C.3         1 GYN       0.0432
     36 C46         7.5561   27.5245  -16.7329 C.3         1 GYN      -0.0375
     37 C28         7.5343   26.9975  -15.2802 C.3         1 GYN      -0.0530
     38 H1         10.8830   23.1021  -13.7022 H           1 GYN       0.0753
     39 H2         10.1709   22.0693  -15.6170 H           1 GYN       0.0338
     40 H3          8.7732   23.1256  -15.7805 H           1 GYN       0.0338
     41 H4          8.8273   20.3648  -14.8344 H           1 GYN       0.0553
     42 H5          6.3402   20.5884  -14.7919 H           1 GYN       0.0258
     43 H6          6.9919   21.2940  -16.2764 H           1 GYN       0.0258
     44 H7          6.4736   22.3532  -14.9499 H           1 GYN       0.0258
     45 H8          9.9182   24.3067  -11.2141 H           1 GYN       0.0329
     46 H9          8.1349   24.3433  -11.2515 H           1 GYN       0.0329
     47 H10         9.0737   25.7003  -10.6447 H           1 GYN       0.0329
     48 H11         9.3839   27.4329  -12.3204 H           1 GYN       0.0417
     49 H12        10.9408   27.3398  -14.2818 H           1 GYN       0.0226
     50 H13        10.3530   27.3676  -15.9363 H           1 GYN       0.0226
     51 H14         9.6970   25.1316  -15.8849 H           1 GYN       0.0362
     52 H15        11.2405   25.1605  -15.0569 H           1 GYN       0.0362
     53 H16         6.5886   26.5579  -12.7163 H           1 GYN       0.0252
     54 H17         8.8518   27.9453  -10.1238 H           1 GYN       0.0377
     55 H18         7.5517   28.8641   -9.4130 H           1 GYN       0.0377
     56 H19         8.2119   29.3656  -10.9571 H           1 GYN       0.0377
     57 H20         5.1435   26.5811  -11.0215 H           1 GYN       0.0742
     58 H21         6.4335   27.1399   -8.5888 H           1 GYN       0.2129
     59 H22         5.2790   29.1938   -9.4456 H           1 GYN       0.0312
     60 H23         4.0634   27.9598   -9.2281 H           1 GYN       0.0312
     61 H24         3.0773   29.6265  -10.5601 H           1 GYN       0.0293
     62 H25         3.3233   28.2269  -11.6049 H           1 GYN       0.0293
     63 H26         5.2587   29.2982  -12.6570 H           1 GYN       0.0598
     64 H27         2.7955   31.0965  -12.5259 H           1 GYN       0.0295
     65 H28         3.3285   30.0468  -13.8691 H           1 GYN       0.0295
     66 H29         5.1909   31.4105  -14.3704 H           1 GYN       0.0345
     67 H30         4.5478   33.8132  -14.4029 H           1 GYN       0.0235
     68 H31         3.1948   33.4842  -13.3033 H           1 GYN       0.0235
     69 H32         3.2103   32.7762  -14.9300 H           1 GYN       0.0235
     70 H33         5.0807   32.9276  -11.7435 H           1 GYN       0.0747
     71 H34         8.2545   33.7708  -11.9273 H           1 GYN       0.0376
     72 H35         6.6808   34.4303  -12.3688 H           1 GYN       0.0376
     73 H36         7.7979   33.9427  -13.6364 H           1 GYN       0.0376
     74 H37         7.2705   30.3779  -12.9391 H           1 GYN       0.0245
     75 H38         9.6873   31.7949  -12.6895 H           1 GYN       0.0369
     76 H39         9.1033   31.9140  -14.3529 H           1 GYN       0.0369
     77 H40         9.9526   29.4547  -12.8074 H           1 GYN       0.0520
     78 H41        10.6083   30.0627  -14.3011 H           1 GYN       0.0520
     79 H42         8.1580   29.4022  -17.6359 H           1 GYN       0.0507
     80 H43         6.6713   29.5096  -16.6884 H           1 GYN       0.0507
     81 H44         8.3993   27.0899  -17.2737 H           1 GYN       0.0277
     82 H45         6.6411   27.2255  -17.2524 H           1 GYN       0.0277
     83 H46         6.5946   27.3572  -14.8527 H           1 GYN       0.0210
     84 H47         7.4747   25.9079  -15.2964 H           1 GYN       0.0210
@<TRIPOS>BOND
     1     1     2   2
     2     2     3   1
     3     2     6   1
     4     3     4   1
     5     4     5   1
     6     4     8   1
     7     5     6   1
     8     6     7   1
     9     8     9   2
    10     8    14   1
    11     9    10   1
    12     9    11   1
    13    11    12   1
    14    11    15   1
    15    12    13   1
    16    12    33   1
    17    12    37   1
    18    13    14   1
    19    15    16   2
    20    16    17   1
    21    16    18   1
    22    18    19   1
    23    18    20   1
    24    20    21   1
    25    21    22   1
    26    22    23   1
    27    22    26   1
    28    23    24   1
    29    24    25   1
    30    24    27   1
    31    26    27   1
    32    27    28   1
    33    28    29   1
    34    28    30   2
    35    30    31   1
    36    31    32   1
    37    32    33   1
    38    33    34   2
    39    34    35   1
    40    35    36   1
    41    36    37   1
    42     4    38   1
    43     5    39   1
    44     5    40   1
    45     6    41   1
    46     7    42   1
    47     7    43   1
    48     7    44   1
    49    10    45   1
    50    10    46   1
    51    10    47   1
    52    11    48   1
    53    13    49   1
    54    13    50   1
    55    14    51   1
    56    14    52   1
    57    15    53   1
    58    17    54   1
    59    17    55   1
    60    17    56   1
    61    18    57   1
    62    19    58   1
    63    20    59   1
    64    20    60   1
    65    21    61   1
    66    21    62   1
    67    22    63   1
    68    23    64   1
    69    23    65   1
    70    24    66   1
    71    25    67   1
    72    25    68   1
    73    25    69   1
    74    27    70   1
    75    29    71   1
    76    29    72   1
    77    29    73   1
    78    30    74   1
    79    31    75   1
    80    31    76   1
    81    32    77   1
    82    32    78   1
    83    35    79   1
    84    35    80   1
    85    36    81   1
    86    36    82   1
    87    37    83   1
    88    37    84   1
@<TRIPOS>SUBSTRUCTURE
     1  GYN      2

