@<TRIPOS>MOLECULE
2x00_ligand_076
    84    88
SMALL
GAST_HUCK
****
This file was generated by PARSER (from files_GN.cpp)

@<TRIPOS>ATOM
      1 O6         11.6541   22.0536  -19.9391 O.2         1 GYN      -0.3700
      2 C5         11.4837   21.6077  -18.6767 C.2         1 GYN       0.2385
      3 O1         10.2680   21.2933  -18.1899 O.3         1 GYN      -0.2655
      4 C2         10.2847   20.7821  -16.8625 C.3         1 GYN       0.1059
      5 C3         11.8065   20.8182  -16.4994 C.3         1 GYN       0.0041
      6 C4         12.5657   21.3825  -17.7274 C.3         1 GYN       0.0613
      7 C7         13.3594   22.6789  -17.4417 C.3         1 GYN      -0.0438
      8 C8          9.4074   21.3984  -15.8278 C.2         1 GYN      -0.0559
      9 C13         8.6582   22.5331  -15.9730 C.2         1 GYN      -0.0876
     10 C14         8.2438   22.9543  -17.3208 C.3         1 GYN      -0.0498
     11 C12         8.0940   23.2955  -14.8030 C.3         1 GYN      -0.0250
     12 C27         8.5751   22.7631  -13.3700 C.3         1 GYN       0.0148
     13 C10         8.4560   21.2029  -13.4661 C.3         1 GYN      -0.0494
     14 C9          9.3673   20.6306  -14.5709 C.3         1 GYN      -0.0395
     15 C15         8.3444   24.7442  -15.0043 C.2         1 GYN      -0.1023
     16 C16         7.4737   25.7481  -15.3006 C.2         1 GYN      -0.0548
     17 C19         6.0300   25.5148  -15.3473 C.3         1 GYN      -0.0377
     18 C17         7.9953   27.0411  -15.8070 C.3         1 GYN       0.0804
     19 O20         7.6014   27.1395  -17.1791 O.3         1 GYN      -0.3807
     20 C18         7.5493   28.3645  -15.1035 C.3         1 GYN      -0.0158
     21 C21         8.1723   28.7042  -13.7173 C.3         1 GYN      -0.0223
     22 C43         7.6637   27.8508  -12.5274 C.3         1 GYN       0.0623
     23 C47         8.1596   28.3078  -11.1325 C.3         1 GYN      -0.0197
     24 C48         6.8708   28.5837  -10.3259 C.3         1 GYN      -0.0066
     25 C49         6.5292   30.0957  -10.2300 C.3         1 GYN      -0.0582
     26 O43         6.2259   27.8922  -12.4775 O.3         1 GYN      -0.3622
     27 C37         5.7872   27.7919  -11.1104 C.3         1 GYN       0.0865
     28 C36         5.5303   26.4263  -10.6026 C.2         1 GYN      -0.0553
     29 C38         4.9150   26.2772   -9.2829 C.3         1 GYN      -0.0379
     30 C35         5.8246   25.3427  -11.3524 C.2         1 GYN      -0.1039
     31 C34         5.6058   23.9419  -11.0298 C.3         1 GYN      -0.0315
     32 C33         6.3186   22.9676  -12.0236 C.3         1 GYN       0.0100
     33 C32         7.7709   23.1424  -12.1605 C.2         1 GYN       0.0383
     34 N31         8.3477   23.2735  -11.0119 N.2         1 GYN      -0.2722
     35 C30         9.6865   23.2490  -10.6385 C.3         1 GYN       0.0432
     36 C46        10.6215   22.7257  -11.7557 C.3         1 GYN      -0.0375
     37 C28        10.0752   23.2144  -13.1127 C.3         1 GYN      -0.0530
     38 H1          9.9714   19.7391  -16.9850 H           1 GYN       0.0753
     39 H2         12.1577   19.8036  -16.2794 H           1 GYN       0.0338
     40 H3         11.9986   21.4348  -15.6158 H           1 GYN       0.0338
     41 H4         13.2404   20.6214  -18.1281 H           1 GYN       0.0553
     42 H5         13.8433   23.0286  -18.3523 H           1 GYN       0.0258
     43 H6         14.1275   22.4762  -16.6978 H           1 GYN       0.0258
     44 H7         12.6983   23.4612  -17.0662 H           1 GYN       0.0258
     45 H8          7.8699   22.1018  -17.8917 H           1 GYN       0.0329
     46 H9          9.0792   23.4166  -17.8505 H           1 GYN       0.0329
     47 H10         7.4344   23.6787  -17.3103 H           1 GYN       0.0329
     48 H11         7.0232   23.1083  -14.8662 H           1 GYN       0.0417
     49 H12         7.4261   20.9239  -13.7116 H           1 GYN       0.0226
     50 H13         8.6955   20.7103  -12.5201 H           1 GYN       0.0226
     51 H14        10.3749   20.5347  -14.1587 H           1 GYN       0.0362
     52 H15         9.0166   19.6165  -14.7845 H           1 GYN       0.0362
     53 H16         9.3067   24.9780  -15.0693 H           1 GYN       0.0252
     54 H17         5.7763   24.7846  -16.1145 H           1 GYN       0.0377
     55 H18         5.4641   26.4180  -15.5741 H           1 GYN       0.0377
     56 H19         5.6764   25.1400  -14.3939 H           1 GYN       0.0377
     57 H20         9.0898   27.0607  -15.8212 H           1 GYN       0.0742
     58 H21         8.0728   26.4168  -17.6449 H           1 GYN       0.2129
     59 H22         6.4622   28.4123  -15.0318 H           1 GYN       0.0312
     60 H23         7.8421   29.1869  -15.7649 H           1 GYN       0.0312
     61 H24         7.9405   29.7515  -13.4984 H           1 GYN       0.0293
     62 H25         9.2606   28.6176  -13.7824 H           1 GYN       0.0293
     63 H26         8.0012   26.8258  -12.6979 H           1 GYN       0.0598
     64 H27         8.8113   29.1842  -11.1830 H           1 GYN       0.0295
     65 H28         8.7242   27.4985  -10.6591 H           1 GYN       0.0295
     66 H29         6.9889   28.2097   -9.3037 H           1 GYN       0.0345
     67 H30         5.5832   30.2327   -9.7024 H           1 GYN       0.0235
     68 H31         6.4440   30.5400  -11.2238 H           1 GYN       0.0235
     69 H32         7.3038   30.6248   -9.6749 H           1 GYN       0.0235
     70 H33         4.8255   28.3125  -11.0738 H           1 GYN       0.0747
     71 H34         3.9841   25.7123   -9.3595 H           1 GYN       0.0376
     72 H35         4.6765   27.2397   -8.8246 H           1 GYN       0.0376
     73 H36         5.5958   25.7510   -8.6109 H           1 GYN       0.0376
     74 H37         6.2371   25.4997  -12.2311 H           1 GYN       0.0245
     75 H38         4.5321   23.7384  -11.0430 H           1 GYN       0.0369
     76 H39         5.9680   23.7391  -10.0185 H           1 GYN       0.0369
     77 H40         5.8160   23.0382  -12.9866 H           1 GYN       0.0520
     78 H41         6.1476   21.9577  -11.6491 H           1 GYN       0.0520
     79 H42         9.7936   22.6213   -9.7515 H           1 GYN       0.0507
     80 H43         9.9601   24.2712  -10.3675 H           1 GYN       0.0507
     81 H44        10.6689   21.6355  -11.7281 H           1 GYN       0.0277
     82 H45        11.6367   23.0988  -11.6124 H           1 GYN       0.0277
     83 H46        10.1366   24.3053  -13.0790 H           1 GYN       0.0210
     84 H47        10.7482   22.8907  -13.9065 H           1 GYN       0.0210
@<TRIPOS>BOND
     1     1     2   2
     2     2     3   1
     3     2     6   1
     4     3     4   1
     5     4     5   1
     6     4     8   1
     7     5     6   1
     8     6     7   1
     9     8     9   2
    10     8    14   1
    11     9    10   1
    12     9    11   1
    13    11    12   1
    14    11    15   1
    15    12    13   1
    16    12    33   1
    17    12    37   1
    18    13    14   1
    19    15    16   2
    20    16    17   1
    21    16    18   1
    22    18    19   1
    23    18    20   1
    24    20    21   1
    25    21    22   1
    26    22    23   1
    27    22    26   1
    28    23    24   1
    29    24    25   1
    30    24    27   1
    31    26    27   1
    32    27    28   1
    33    28    29   1
    34    28    30   2
    35    30    31   1
    36    31    32   1
    37    32    33   1
    38    33    34   2
    39    34    35   1
    40    35    36   1
    41    36    37   1
    42     4    38   1
    43     5    39   1
    44     5    40   1
    45     6    41   1
    46     7    42   1
    47     7    43   1
    48     7    44   1
    49    10    45   1
    50    10    46   1
    51    10    47   1
    52    11    48   1
    53    13    49   1
    54    13    50   1
    55    14    51   1
    56    14    52   1
    57    15    53   1
    58    17    54   1
    59    17    55   1
    60    17    56   1
    61    18    57   1
    62    19    58   1
    63    20    59   1
    64    20    60   1
    65    21    61   1
    66    21    62   1
    67    22    63   1
    68    23    64   1
    69    23    65   1
    70    24    66   1
    71    25    67   1
    72    25    68   1
    73    25    69   1
    74    27    70   1
    75    29    71   1
    76    29    72   1
    77    29    73   1
    78    30    74   1
    79    31    75   1
    80    31    76   1
    81    32    77   1
    82    32    78   1
    83    35    79   1
    84    35    80   1
    85    36    81   1
    86    36    82   1
    87    37    83   1
    88    37    84   1
@<TRIPOS>SUBSTRUCTURE
     1  GYN      2

