@<TRIPOS>MOLECULE
2x00_ligand_093
    84    88
SMALL
GAST_HUCK
****
This file was generated by PARSER (from files_GN.cpp)

@<TRIPOS>ATOM
      1 O6          1.0284   32.1712   -4.6009 O.2         1 GYN      -0.3700
      2 C5          0.8056   30.8424   -4.4294 C.2         1 GYN       0.2385
      3 O1          1.7954   29.9302   -4.4689 O.3         1 GYN      -0.2655
      4 C2          1.3554   28.6022   -4.1731 C.3         1 GYN       0.1059
      5 C3         -0.1717   28.7558   -3.8844 C.3         1 GYN       0.0041
      6 C4         -0.5076   30.2550   -4.1445 C.3         1 GYN       0.0613
      7 C7         -1.4848   30.4905   -5.3251 C.3         1 GYN      -0.0438
      8 C8          1.7900   27.6772   -5.2562 C.2         1 GYN      -0.0559
      9 C13         2.8530   26.8231   -5.1206 C.2         1 GYN      -0.0876
     10 C14         3.1771   26.2728   -3.7903 C.3         1 GYN      -0.0498
     11 C12         3.6386   26.3069   -6.2909 C.3         1 GYN      -0.0250
     12 C27         3.1648   26.8522   -7.7250 C.3         1 GYN       0.0148
     13 C10         1.5965   26.8616   -7.6579 C.3         1 GYN      -0.0494
     14 C9          1.0865   27.8010   -6.5421 C.3         1 GYN      -0.0395
     15 C15         5.0802   26.5240   -6.0155 C.2         1 GYN      -0.1023
     16 C16         6.0675   25.6322   -5.7421 C.2         1 GYN      -0.0548
     17 C19         5.8379   24.1879   -5.8522 C.3         1 GYN      -0.0377
     18 C17         7.3274   26.1077   -5.1157 C.3         1 GYN       0.0804
     19 O20         7.3290   25.6260   -3.7699 O.3         1 GYN      -0.3807
     20 C18         8.6927   25.6880   -5.7438 C.3         1 GYN      -0.0158
     21 C21         9.2106   26.3954   -7.0270 C.3         1 GYN      -0.0223
     22 C43         8.4090   26.0902   -8.3130 C.3         1 GYN       0.0623
     23 C47         8.9989   26.6905   -9.6029 C.3         1 GYN      -0.0197
     24 C48         8.3226   25.8410  -10.6894 C.3         1 GYN      -0.0066
     25 C49         9.0785   25.8199  -12.0430 C.3         1 GYN      -0.0582
     26 O43         8.3669   24.6764   -8.5669 O.3         1 GYN      -0.3622
     27 C37         8.1933   24.4582   -9.9812 C.3         1 GYN       0.0865
     28 C36         6.9182   23.7738  -10.2601 C.2         1 GYN      -0.0553
     29 C38         6.8862   22.6136  -11.1423 C.3         1 GYN      -0.0379
     30 C35         5.7939   24.2551   -9.6871 C.2         1 GYN      -0.1039
     31 C34         4.4238   23.8529   -9.9459 C.3         1 GYN      -0.0315
     32 C33         3.3618   24.5816   -9.0589 C.3         1 GYN       0.0100
     33 C32         3.4989   26.0378   -8.9385 C.2         1 GYN       0.0383
     34 N31         3.6605   26.6116  -10.0859 N.2         1 GYN      -0.2722
     35 C30         3.7105   27.9533  -10.4596 C.3         1 GYN       0.0432
     36 C46         3.3167   28.9278   -9.3242 C.3         1 GYN      -0.0375
     37 C28         3.7334   28.3139   -7.9666 C.3         1 GYN      -0.0530
     38 H1          1.8357   28.3809   -3.2190 H           1 GYN       0.0753
     39 H2         -0.3731   28.5159   -2.8311 H           1 GYN       0.0338
     40 H3         -0.7885   28.0805   -4.4875 H           1 GYN       0.0338
     41 H4         -0.9180   30.7161   -3.2378 H           1 GYN       0.0553
     42 H5         -1.6871   31.5589   -5.4448 H           1 GYN       0.0258
     43 H6         -2.4289   29.9787   -5.1376 H           1 GYN       0.0258
     44 H7         -1.0599   30.1071   -6.2563 H           1 GYN       0.0258
     45 H8          2.2670   25.9344   -3.2869 H           1 GYN       0.0329
     46 H9          3.6751   27.0266   -3.1767 H           1 GYN       0.0329
     47 H10         3.8438   25.4098   -3.8361 H           1 GYN       0.0329
     48 H11         3.4265   25.2423   -6.2701 H           1 GYN       0.0417
     49 H12         1.2309   25.8470   -7.4449 H           1 GYN       0.0226
     50 H13         1.1386   27.1651   -8.6056 H           1 GYN       0.0226
     51 H14         1.1407   28.8360   -6.8950 H           1 GYN       0.0362
     52 H15         0.0296   27.5621   -6.4119 H           1 GYN       0.0362
     53 H16         5.3079   27.4788   -5.8676 H           1 GYN       0.0252
     54 H17         5.0078   23.8764   -5.2187 H           1 GYN       0.0377
     55 H18         6.7000   23.5947   -5.5428 H           1 GYN       0.0377
     56 H19         5.6110   23.9200   -6.8815 H           1 GYN       0.0377
     57 H20         7.3583   27.1959   -5.0239 H           1 GYN       0.0742
     58 H21         6.5312   26.0128   -3.3494 H           1 GYN       0.2129
     59 H22         8.6910   24.6178   -5.9239 H           1 GYN       0.0312
     60 H23         9.4634   25.8747   -4.9884 H           1 GYN       0.0312
     61 H24        10.2440   26.0752   -7.1910 H           1 GYN       0.0293
     62 H25         9.2323   27.4717   -6.8586 H           1 GYN       0.0293
     63 H26         7.3954   26.4775   -8.1786 H           1 GYN       0.0598
     64 H27        10.0848   26.5534   -9.6293 H           1 GYN       0.0295
     65 H28         8.7552   27.7528   -9.7059 H           1 GYN       0.0295
     66 H29         7.3312   26.2720  -10.8767 H           1 GYN       0.0345
     67 H30         8.5303   25.2122  -12.7644 H           1 GYN       0.0235
     68 H31        10.0826   25.4086  -11.9262 H           1 GYN       0.0235
     69 H32         9.1598   26.8341  -12.4386 H           1 GYN       0.0235
     70 H33         9.0436   23.8318  -10.2685 H           1 GYN       0.0747
     71 H34         6.5262   21.7473  -10.5875 H           1 GYN       0.0376
     72 H35         7.8672   22.3631  -11.5475 H           1 GYN       0.0376
     73 H36         6.2218   22.8000  -11.9863 H           1 GYN       0.0376
     74 H37         5.8998   25.0039   -9.0510 H           1 GYN       0.0245
     75 H38         4.3280   22.7815   -9.7903 H           1 GYN       0.0369
     76 H39         4.2109   24.0444  -10.9978 H           1 GYN       0.0369
     77 H40         3.3819   24.1071   -8.0845 H           1 GYN       0.0520
     78 H41         2.3751   24.3794   -9.4823 H           1 GYN       0.0520
     79 H42         3.0455   28.0986  -11.3145 H           1 GYN       0.0507
     80 H43         4.7332   28.1617  -10.7868 H           1 GYN       0.0507
     81 H44         2.2395   29.1078   -9.3389 H           1 GYN       0.0277
     82 H45         3.8156   29.8897   -9.4710 H           1 GYN       0.0277
     83 H46         4.8245   28.2714   -7.9905 H           1 GYN       0.0210
     84 H47         3.4552   28.9995   -7.1639 H           1 GYN       0.0210
@<TRIPOS>BOND
     1     1     2   2
     2     2     3   1
     3     2     6   1
     4     3     4   1
     5     4     5   1
     6     4     8   1
     7     5     6   1
     8     6     7   1
     9     8     9   2
    10     8    14   1
    11     9    10   1
    12     9    11   1
    13    11    12   1
    14    11    15   1
    15    12    13   1
    16    12    33   1
    17    12    37   1
    18    13    14   1
    19    15    16   2
    20    16    17   1
    21    16    18   1
    22    18    19   1
    23    18    20   1
    24    20    21   1
    25    21    22   1
    26    22    23   1
    27    22    26   1
    28    23    24   1
    29    24    25   1
    30    24    27   1
    31    26    27   1
    32    27    28   1
    33    28    29   1
    34    28    30   2
    35    30    31   1
    36    31    32   1
    37    32    33   1
    38    33    34   2
    39    34    35   1
    40    35    36   1
    41    36    37   1
    42     4    38   1
    43     5    39   1
    44     5    40   1
    45     6    41   1
    46     7    42   1
    47     7    43   1
    48     7    44   1
    49    10    45   1
    50    10    46   1
    51    10    47   1
    52    11    48   1
    53    13    49   1
    54    13    50   1
    55    14    51   1
    56    14    52   1
    57    15    53   1
    58    17    54   1
    59    17    55   1
    60    17    56   1
    61    18    57   1
    62    19    58   1
    63    20    59   1
    64    20    60   1
    65    21    61   1
    66    21    62   1
    67    22    63   1
    68    23    64   1
    69    23    65   1
    70    24    66   1
    71    25    67   1
    72    25    68   1
    73    25    69   1
    74    27    70   1
    75    29    71   1
    76    29    72   1
    77    29    73   1
    78    30    74   1
    79    31    75   1
    80    31    76   1
    81    32    77   1
    82    32    78   1
    83    35    79   1
    84    35    80   1
    85    36    81   1
    86    36    82   1
    87    37    83   1
    88    37    84   1
@<TRIPOS>SUBSTRUCTURE
     1  GYN      2

