@<TRIPOS>MOLECULE
2x00_ligand_037
    84    88
SMALL
GAST_HUCK
****
This file was generated by PARSER (from files_GN.cpp)

@<TRIPOS>ATOM
      1 O6          7.1680   27.1425  -10.0584 O.2         1 GYN      -0.3700
      2 C5          5.9882   26.6137   -9.6602 C.2         1 GYN       0.2385
      3 O1          4.8555   27.3403   -9.6365 O.3         1 GYN      -0.2655
      4 C2          3.7116   26.5868   -9.2406 C.3         1 GYN       0.1059
      5 C3          4.2761   25.1640   -8.9400 C.3         1 GYN       0.0041
      6 C4          5.7884   25.2110   -9.2956 C.3         1 GYN       0.0613
      7 C7          6.7323   24.7619   -8.1503 C.3         1 GYN      -0.0438
      8 C8          2.9590   27.2152   -8.1217 C.2         1 GYN      -0.0559
      9 C13         1.5979   27.1790   -8.0086 C.2         1 GYN      -0.0876
     10 C14         0.8482   26.2103   -8.8241 C.3         1 GYN      -0.0498
     11 C12         0.8491   27.9702   -6.9681 C.3         1 GYN      -0.0250
     12 C27         1.7059   29.0907   -6.2198 C.3         1 GYN       0.0148
     13 C10         3.0626   28.3888   -5.8564 C.3         1 GYN      -0.0494
     14 C9          3.7972   27.8705   -7.1127 C.3         1 GYN      -0.0395
     15 C15        -0.4229   28.5052   -7.5148 C.2         1 GYN      -0.1023
     16 C16        -1.6982   28.0911   -7.2811 C.2         1 GYN      -0.0548
     17 C19        -1.9840   27.0078   -6.3379 C.3         1 GYN      -0.0377
     18 C17        -2.8030   28.5593   -8.1507 C.3         1 GYN       0.0804
     19 O20        -3.1741   27.4423   -8.9615 O.3         1 GYN      -0.3807
     20 C18        -4.1105   29.1034   -7.4842 C.3         1 GYN      -0.0158
     21 C21        -4.1429   30.6117   -7.1039 C.3         1 GYN      -0.0223
     22 C43        -3.3297   30.9791   -5.8397 C.3         1 GYN       0.0623
     23 C47        -3.5164   32.4304   -5.3576 C.3         1 GYN      -0.0197
     24 C48        -3.0958   32.3378   -3.8806 C.3         1 GYN      -0.0066
     25 C49        -3.7428   33.4286   -2.9875 C.3         1 GYN      -0.0582
     26 O43        -3.7480   30.1735   -4.7273 O.3         1 GYN      -0.3622
     27 C37        -3.4713   30.8724   -3.4985 C.3         1 GYN       0.0865
     28 C36        -2.4404   30.2135   -2.6741 C.2         1 GYN      -0.0553
     29 C38        -2.4477   30.4149   -1.2278 C.3         1 GYN      -0.0379
     30 C35        -1.4257   29.5618   -3.2824 C.2         1 GYN      -0.1039
     31 C34        -0.1574   29.1612   -2.6917 C.3         1 GYN      -0.0315
     32 C33         0.9027   28.7054   -3.7469 C.3         1 GYN       0.0100
     33 C32         1.1155   29.5725   -4.9237 C.2         1 GYN       0.0383
     34 N31         0.8955   30.8263   -4.7107 N.2         1 GYN      -0.2722
     35 C30         0.9823   31.9332   -5.5459 C.3         1 GYN       0.0432
     36 C46         1.0617   31.5303   -7.0309 C.3         1 GYN      -0.0375
     37 C28         2.0244   30.3258   -7.1742 C.3         1 GYN      -0.0530
     38 H1          3.1078   26.5460  -10.1460 H           1 GYN       0.0753
     39 H2          3.7674   24.4154   -9.5573 H           1 GYN       0.0338
     40 H3          4.1199   24.8795   -7.8957 H           1 GYN       0.0338
     41 H4          5.9838   24.5911  -10.1770 H           1 GYN       0.0553
     42 H5          7.7739   24.8267   -8.4731 H           1 GYN       0.0258
     43 H6          6.5200   23.7258   -7.8806 H           1 GYN       0.0258
     44 H7          6.6002   25.3907   -7.2671 H           1 GYN       0.0258
     45 H8          1.3288   25.2291   -8.8104 H           1 GYN       0.0329
     46 H9          0.7788   26.5662   -9.8533 H           1 GYN       0.0329
     47 H10        -0.1656   26.0495   -8.4783 H           1 GYN       0.0329
     48 H11         0.6128   27.2127   -6.2242 H           1 GYN       0.0417
     49 H12         2.8829   27.5218   -5.2117 H           1 GYN       0.0226
     50 H13         3.7236   29.0660   -5.3078 H           1 GYN       0.0226
     51 H14         4.3006   28.7130   -7.5876 H           1 GYN       0.0362
     52 H15         4.5758   27.1825   -6.7679 H           1 GYN       0.0362
     53 H16        -0.3026   29.1540   -8.2531 H           1 GYN       0.0252
     54 H17        -1.4088   26.1128   -6.5709 H           1 GYN       0.0377
     55 H18        -3.0293   26.6970   -6.3575 H           1 GYN       0.0377
     56 H19        -1.7421   27.3157   -5.3219 H           1 GYN       0.0377
     57 H20        -2.4689   29.3307   -8.8508 H           1 GYN       0.0742
     58 H21        -2.4834   27.4068   -9.6581 H           1 GYN       0.2129
     59 H22        -4.3805   28.5088   -6.6118 H           1 GYN       0.0312
     60 H23        -4.9236   28.9646   -8.2038 H           1 GYN       0.0312
     61 H24        -5.1878   30.8804   -6.9240 H           1 GYN       0.0293
     62 H25        -3.7949   31.2100   -7.9501 H           1 GYN       0.0293
     63 H26        -2.2681   30.8038   -6.0447 H           1 GYN       0.0598
     64 H27        -4.5652   32.7314   -5.4435 H           1 GYN       0.0295
     65 H28        -2.8921   33.1302   -5.9187 H           1 GYN       0.0295
     66 H29        -2.0081   32.4749   -3.8335 H           1 GYN       0.0345
     67 H30        -3.3917   33.3284   -1.9589 H           1 GYN       0.0235
     68 H31        -4.8316   33.3404   -2.9967 H           1 GYN       0.0235
     69 H32        -3.4688   34.4207   -3.3515 H           1 GYN       0.0235
     70 H33        -4.4247   30.8576   -2.9642 H           1 GYN       0.0747
     71 H34        -2.3587   29.4541   -0.7182 H           1 GYN       0.0376
     72 H35        -3.3682   30.8866   -0.8789 H           1 GYN       0.0376
     73 H36        -1.6140   31.0535   -0.9310 H           1 GYN       0.0376
     74 H37        -1.4993   29.4212   -4.2577 H           1 GYN       0.0245
     75 H38        -0.3311   28.3478   -1.9828 H           1 GYN       0.0369
     76 H39         0.2628   30.0057   -2.1412 H           1 GYN       0.0369
     77 H40         0.6142   27.7043   -4.0637 H           1 GYN       0.0520
     78 H41         1.8599   28.6077   -3.2280 H           1 GYN       0.0520
     79 H42         1.8661   32.5081   -5.2647 H           1 GYN       0.0507
     80 H43         0.1054   32.5634   -5.3892 H           1 GYN       0.0507
     81 H44         1.4221   32.3750   -7.6240 H           1 GYN       0.0277
     82 H45         0.0638   31.2732   -7.3869 H           1 GYN       0.0277
     83 H46         2.0429   30.0192   -8.2238 H           1 GYN       0.0210
     84 H47         3.0165   30.7226   -6.9539 H           1 GYN       0.0210
@<TRIPOS>BOND
     1     1     2   2
     2     2     3   1
     3     2     6   1
     4     3     4   1
     5     4     5   1
     6     4     8   1
     7     5     6   1
     8     6     7   1
     9     8     9   2
    10     8    14   1
    11     9    10   1
    12     9    11   1
    13    11    12   1
    14    11    15   1
    15    12    13   1
    16    12    33   1
    17    12    37   1
    18    13    14   1
    19    15    16   2
    20    16    17   1
    21    16    18   1
    22    18    19   1
    23    18    20   1
    24    20    21   1
    25    21    22   1
    26    22    23   1
    27    22    26   1
    28    23    24   1
    29    24    25   1
    30    24    27   1
    31    26    27   1
    32    27    28   1
    33    28    29   1
    34    28    30   2
    35    30    31   1
    36    31    32   1
    37    32    33   1
    38    33    34   2
    39    34    35   1
    40    35    36   1
    41    36    37   1
    42     4    38   1
    43     5    39   1
    44     5    40   1
    45     6    41   1
    46     7    42   1
    47     7    43   1
    48     7    44   1
    49    10    45   1
    50    10    46   1
    51    10    47   1
    52    11    48   1
    53    13    49   1
    54    13    50   1
    55    14    51   1
    56    14    52   1
    57    15    53   1
    58    17    54   1
    59    17    55   1
    60    17    56   1
    61    18    57   1
    62    19    58   1
    63    20    59   1
    64    20    60   1
    65    21    61   1
    66    21    62   1
    67    22    63   1
    68    23    64   1
    69    23    65   1
    70    24    66   1
    71    25    67   1
    72    25    68   1
    73    25    69   1
    74    27    70   1
    75    29    71   1
    76    29    72   1
    77    29    73   1
    78    30    74   1
    79    31    75   1
    80    31    76   1
    81    32    77   1
    82    32    78   1
    83    35    79   1
    84    35    80   1
    85    36    81   1
    86    36    82   1
    87    37    83   1
    88    37    84   1
@<TRIPOS>SUBSTRUCTURE
     1  GYN      2

