@<TRIPOS>MOLECULE
2x00_ligand_089
    84    88
SMALL
GAST_HUCK
****
This file was generated by PARSER (from files_GN.cpp)

@<TRIPOS>ATOM
      1 O6          5.3962   22.8721   -3.3483 O.2         1 GYN      -0.3700
      2 C5          4.8486   23.9106   -2.6804 C.2         1 GYN       0.2385
      3 O1          3.5268   23.9859   -2.4335 O.3         1 GYN      -0.2655
      4 C2          3.1310   25.1136   -1.6516 C.3         1 GYN       0.1059
      5 C3          4.4941   25.8389   -1.3889 C.3         1 GYN       0.0041
      6 C4          5.6082   24.9962   -2.0614 C.3         1 GYN       0.0613
      7 C7          6.4521   25.7752   -3.0985 C.3         1 GYN      -0.0438
      8 C8          2.0662   26.0099   -2.1833 C.2         1 GYN      -0.0559
      9 C13         1.4421   25.9030   -3.3930 C.2         1 GYN      -0.0876
     10 C14         1.3724   24.5939   -4.0630 C.3         1 GYN      -0.0498
     11 C12         0.7102   27.0541   -4.0333 C.3         1 GYN      -0.0250
     12 C27         0.9158   28.4573   -3.2858 C.3         1 GYN       0.0148
     13 C10         0.6812   28.1300   -1.7688 C.3         1 GYN      -0.0494
     14 C9          1.6880   27.0810   -1.2448 C.3         1 GYN      -0.0395
     15 C15         1.0666   27.1279   -5.4642 C.2         1 GYN      -0.1023
     16 C16         0.3350   26.8174   -6.5669 C.2         1 GYN      -0.0548
     17 C19        -1.0599   26.3757   -6.4542 C.3         1 GYN      -0.0377
     18 C17         1.0255   26.7245   -7.8812 C.3         1 GYN       0.0804
     19 O20         1.2966   25.3408   -8.1321 O.3         1 GYN      -0.3807
     20 C18         0.3663   27.3624   -9.1501 C.3         1 GYN      -0.0158
     21 C21         0.4624   28.9094   -9.2935 C.3         1 GYN      -0.0223
     22 C43        -0.3566   29.7432   -8.2723 C.3         1 GYN       0.0623
     23 C47        -0.3883   31.2642   -8.5679 C.3         1 GYN      -0.0197
     24 C48        -1.8771   31.5766   -8.8230 C.3         1 GYN      -0.0066
     25 C49        -2.2422   31.5939  -10.3321 C.3         1 GYN      -0.0582
     26 O43        -1.7272   29.3019   -8.2369 O.3         1 GYN      -0.3622
     27 C37        -2.5962   30.4370   -8.0493 C.3         1 GYN       0.0865
     28 C36        -2.9279   30.7743   -6.6445 C.2         1 GYN      -0.0553
     29 C38        -3.9155   31.8209   -6.3857 C.3         1 GYN      -0.0379
     30 C35        -2.3493   30.1131   -5.6191 C.2         1 GYN      -0.1039
     31 C34        -2.4620   30.3844   -4.1924 C.3         1 GYN      -0.0315
     32 C33        -1.4939   29.5063   -3.3283 C.3         1 GYN       0.0100
     33 C32        -0.0594   29.5363   -3.6742 C.2         1 GYN       0.0383
     34 N31         0.3320   30.6566   -4.1826 N.2         1 GYN      -0.2722
     35 C30         1.5807   31.1041   -4.5877 C.3         1 GYN       0.0432
     36 C46         2.6223   29.9713   -4.6299 C.3         1 GYN      -0.0375
     37 C28         2.4021   29.0053   -3.4431 C.3         1 GYN      -0.0530
     38 H1          2.7747   24.6781   -0.7117 H           1 GYN       0.0753
     39 H2          4.6765   25.9123   -0.3118 H           1 GYN       0.0338
     40 H3          4.5013   26.8558   -1.7839 H           1 GYN       0.0338
     41 H4          6.2737   24.5742   -1.3022 H           1 GYN       0.0553
     42 H5          7.1784   25.1112   -3.5705 H           1 GYN       0.0258
     43 H6          6.9951   26.5848   -2.6020 H           1 GYN       0.0258
     44 H7          5.8160   26.2043   -3.8751 H           1 GYN       0.0258
     45 H8          0.6089   24.5442   -4.8343 H           1 GYN       0.0329
     46 H9          1.1185   23.8070   -3.3547 H           1 GYN       0.0329
     47 H10         2.3231   24.3744   -4.5452 H           1 GYN       0.0329
     48 H11        -0.3416   26.8008   -3.9415 H           1 GYN       0.0417
     49 H12        -0.3242   27.7200   -1.6203 H           1 GYN       0.0226
     50 H13         0.7533   29.0324   -1.1569 H           1 GYN       0.0226
     51 H14         2.5800   27.6262   -0.9242 H           1 GYN       0.0362
     52 H15         1.2597   26.6222   -0.3437 H           1 GYN       0.0362
     53 H16         2.0328   27.2813   -5.6181 H           1 GYN       0.0252
     54 H17        -1.6769   27.1584   -6.0263 H           1 GYN       0.0377
     55 H18        -1.1528   25.4969   -5.8217 H           1 GYN       0.0377
     56 H19        -1.4968   26.1048   -7.4108 H           1 GYN       0.0377
     57 H20         2.0197   27.1775   -7.8279 H           1 GYN       0.0742
     58 H21         0.5223   24.9717   -8.6074 H           1 GYN       0.2129
     59 H22        -0.6745   27.0555   -9.2522 H           1 GYN       0.0312
     60 H23         0.8862   26.9466  -10.0198 H           1 GYN       0.0312
     61 H24         0.1182   29.1661  -10.3004 H           1 GYN       0.0293
     62 H25         1.5142   29.2049   -9.2271 H           1 GYN       0.0293
     63 H26         0.0945   29.5876   -7.2886 H           1 GYN       0.0598
     64 H27         0.2484   31.5500   -9.4100 H           1 GYN       0.0295
     65 H28        -0.0466   31.8166   -7.6871 H           1 GYN       0.0295
     66 H29        -2.1176   32.5638   -8.4194 H           1 GYN       0.0345
     67 H30        -3.3121   31.7671  -10.4552 H           1 GYN       0.0235
     68 H31        -1.9862   30.6465  -10.8101 H           1 GYN       0.0235
     69 H32        -1.7053   32.3952  -10.8414 H           1 GYN       0.0235
     70 H33        -3.5402   30.1779   -8.5343 H           1 GYN       0.0747
     71 H34        -4.7372   31.4242   -5.7855 H           1 GYN       0.0376
     72 H35        -4.3465   32.2174   -7.3067 H           1 GYN       0.0376
     73 H36        -3.4518   32.6516   -5.8495 H           1 GYN       0.0376
     74 H37        -1.7322   29.3821   -5.8505 H           1 GYN       0.0245
     75 H38        -3.4891   30.2017   -3.8715 H           1 GYN       0.0369
     76 H39        -2.2389   31.4359   -4.0053 H           1 GYN       0.0369
     77 H40        -1.8548   28.4788   -3.3736 H           1 GYN       0.0520
     78 H41        -1.5932   29.8373   -2.2912 H           1 GYN       0.0520
     79 H42         1.9034   31.8823   -3.8962 H           1 GYN       0.0507
     80 H43         1.4913   31.5540   -5.5785 H           1 GYN       0.0507
     81 H44         3.6244   30.3907   -4.5622 H           1 GYN       0.0277
     82 H45         2.5463   29.4582   -5.5864 H           1 GYN       0.0277
     83 H46         3.1175   28.1893   -3.5465 H           1 GYN       0.0210
     84 H47         2.6924   29.5618   -2.5454 H           1 GYN       0.0210
@<TRIPOS>BOND
     1     1     2   2
     2     2     3   1
     3     2     6   1
     4     3     4   1
     5     4     5   1
     6     4     8   1
     7     5     6   1
     8     6     7   1
     9     8     9   2
    10     8    14   1
    11     9    10   1
    12     9    11   1
    13    11    12   1
    14    11    15   1
    15    12    13   1
    16    12    33   1
    17    12    37   1
    18    13    14   1
    19    15    16   2
    20    16    17   1
    21    16    18   1
    22    18    19   1
    23    18    20   1
    24    20    21   1
    25    21    22   1
    26    22    23   1
    27    22    26   1
    28    23    24   1
    29    24    25   1
    30    24    27   1
    31    26    27   1
    32    27    28   1
    33    28    29   1
    34    28    30   2
    35    30    31   1
    36    31    32   1
    37    32    33   1
    38    33    34   2
    39    34    35   1
    40    35    36   1
    41    36    37   1
    42     4    38   1
    43     5    39   1
    44     5    40   1
    45     6    41   1
    46     7    42   1
    47     7    43   1
    48     7    44   1
    49    10    45   1
    50    10    46   1
    51    10    47   1
    52    11    48   1
    53    13    49   1
    54    13    50   1
    55    14    51   1
    56    14    52   1
    57    15    53   1
    58    17    54   1
    59    17    55   1
    60    17    56   1
    61    18    57   1
    62    19    58   1
    63    20    59   1
    64    20    60   1
    65    21    61   1
    66    21    62   1
    67    22    63   1
    68    23    64   1
    69    23    65   1
    70    24    66   1
    71    25    67   1
    72    25    68   1
    73    25    69   1
    74    27    70   1
    75    29    71   1
    76    29    72   1
    77    29    73   1
    78    30    74   1
    79    31    75   1
    80    31    76   1
    81    32    77   1
    82    32    78   1
    83    35    79   1
    84    35    80   1
    85    36    81   1
    86    36    82   1
    87    37    83   1
    88    37    84   1
@<TRIPOS>SUBSTRUCTURE
     1  GYN      2

