@<TRIPOS>MOLECULE
2x00_ligand_067
    84    88
SMALL
GAST_HUCK
****
This file was generated by PARSER (from files_GN.cpp)

@<TRIPOS>ATOM
      1 O6          0.6459   25.1896    2.1099 O.2         1 GYN      -0.3700
      2 C5          1.0643   26.1512    1.2591 C.2         1 GYN       0.2385
      3 O1          1.1874   25.9352   -0.0629 O.3         1 GYN      -0.2655
      4 C2          1.5526   27.1024   -0.7895 C.3         1 GYN       0.1059
      5 C3          1.6818   28.2162    0.2986 C.3         1 GYN       0.0041
      6 C4          1.3539   27.5295    1.6535 C.3         1 GYN       0.0613
      7 C7          2.5003   27.5806    2.6927 C.3         1 GYN      -0.0438
      8 C8          2.7339   26.8459   -1.6526 C.2         1 GYN      -0.0559
      9 C13         2.7517   27.0331   -3.0101 C.2         1 GYN      -0.0876
     10 C14         1.6865   27.8401   -3.6380 C.3         1 GYN      -0.0498
     11 C12         3.8864   26.5751   -3.8848 C.3         1 GYN      -0.0250
     12 C27         4.9341   25.5843   -3.1900 C.3         1 GYN       0.0148
     13 C10         5.1977   26.1948   -1.7733 C.3         1 GYN      -0.0494
     14 C9          3.9021   26.2999   -0.9415 C.3         1 GYN      -0.0395
     15 C15         3.3802   26.0169   -5.1638 C.2         1 GYN      -0.1023
     16 C16         3.4453   26.5215   -6.4200 C.2         1 GYN      -0.0548
     17 C19         4.0797   27.8134   -6.6805 C.3         1 GYN      -0.0377
     18 C17         2.6867   25.8728   -7.5164 C.3         1 GYN       0.0804
     19 O20         1.5381   26.6902   -7.7622 O.3         1 GYN      -0.3807
     20 C18         3.3827   25.6289   -8.8967 C.3         1 GYN      -0.0158
     21 C21         4.3749   24.4387   -9.0239 C.3         1 GYN      -0.0223
     22 C43         5.7448   24.6079   -8.3227 C.3         1 GYN       0.0623
     23 C47         6.7375   23.4438   -8.5697 C.3         1 GYN      -0.0197
     24 C48         7.9551   24.1106   -9.2469 C.3         1 GYN      -0.0066
     25 C49         7.9361   23.9530  -10.7925 C.3         1 GYN      -0.0582
     26 O43         6.4032   25.8027   -8.7872 O.3         1 GYN      -0.3622
     27 C37         7.8310   25.5922   -8.7892 C.3         1 GYN       0.0865
     28 C36         8.5461   25.9104   -7.5286 C.2         1 GYN      -0.0553
     29 C38        10.0095   25.9007   -7.5268 C.3         1 GYN      -0.0379
     30 C35         7.8611   26.2447   -6.4134 C.2         1 GYN      -0.1039
     31 C34         8.3650   26.4902   -5.0703 C.3         1 GYN      -0.0315
     32 C33         7.2242   26.6060   -4.0017 C.3         1 GYN       0.0100
     33 C32         6.2644   25.4847   -3.8894 C.2         1 GYN       0.0383
     34 N31         6.7335   24.3482   -4.2795 N.2         1 GYN      -0.2722
     35 C30         6.1750   23.0781   -4.2852 C.3         1 GYN       0.0432
     36 C46         4.6464   23.1217   -4.0986 C.3         1 GYN      -0.0375
     37 C28         4.3135   24.1333   -2.9793 C.3         1 GYN      -0.0530
     38 H1          0.6539   27.3218   -1.3685 H           1 GYN       0.0753
     39 H2          0.9554   29.0167    0.1078 H           1 GYN       0.0338
     40 H3          2.6658   28.6879    0.3056 H           1 GYN       0.0338
     41 H4          0.4473   27.9632    2.0902 H           1 GYN       0.0553
     42 H5          2.1862   27.1033    3.6233 H           1 GYN       0.0258
     43 H6          2.7664   28.6163    2.9125 H           1 GYN       0.0258
     44 H7          3.3872   27.0629    2.3204 H           1 GYN       0.0258
     45 H8          1.9001   28.1202   -4.6657 H           1 GYN       0.0329
     46 H9          1.5395   28.7769   -3.0972 H           1 GYN       0.0329
     47 H10         0.7505   27.2788   -3.6582 H           1 GYN       0.0329
     48 H11         4.4200   27.5012   -4.0931 H           1 GYN       0.0417
     49 H12         5.6019   27.2075   -1.8672 H           1 GYN       0.0226
     50 H13         5.9328   25.5979   -1.2240 H           1 GYN       0.0226
     51 H14         3.6489   25.3107   -0.5510 H           1 GYN       0.0362
     52 H15         4.1490   26.9196   -0.0757 H           1 GYN       0.0362
     53 H16         2.8083   25.2135   -5.0468 H           1 GYN       0.0252
     54 H17         5.1376   27.7372   -6.4626 H           1 GYN       0.0377
     55 H18         3.6583   28.6032   -6.0590 H           1 GYN       0.0377
     56 H19         3.9743   28.1480   -7.7108 H           1 GYN       0.0377
     57 H20         2.2956   24.8993   -7.2043 H           1 GYN       0.0742
     58 H21         1.0391   26.7105   -6.9180 H           1 GYN       0.2129
     59 H22         3.8653   26.5363   -9.2637 H           1 GYN       0.0312
     60 H23         2.5793   25.4106   -9.6051 H           1 GYN       0.0312
     61 H24         4.5623   24.2712  -10.0881 H           1 GYN       0.0293
     62 H25         3.8958   23.5422   -8.6340 H           1 GYN       0.0293
     63 H26         5.5494   24.6799   -7.2521 H           1 GYN       0.0598
     64 H27         6.3127   22.6398   -9.1797 H           1 GYN       0.0295
     65 H28         7.0402   23.0114   -7.6153 H           1 GYN       0.0295
     66 H29         8.8805   23.6526   -8.8892 H           1 GYN       0.0345
     67 H30         8.8056   24.4482  -11.2275 H           1 GYN       0.0235
     68 H31         7.0317   24.3902  -11.2209 H           1 GYN       0.0235
     69 H32         7.9752   22.8961  -11.0605 H           1 GYN       0.0235
     70 H33         8.2321   26.2644   -9.5533 H           1 GYN       0.0747
     71 H34        10.3915   26.8752   -7.2212 H           1 GYN       0.0376
     72 H35        10.4243   25.6770   -8.5126 H           1 GYN       0.0376
     73 H36        10.3905   25.1537   -6.8313 H           1 GYN       0.0376
     74 H37         6.8855   26.3198   -6.4965 H           1 GYN       0.0245
     75 H38         8.9497   27.4135   -5.0697 H           1 GYN       0.0369
     76 H39         9.0324   25.6761   -4.7824 H           1 GYN       0.0369
     77 H40         6.6818   27.5265   -4.2133 H           1 GYN       0.0520
     78 H41         7.7063   26.7366   -3.0293 H           1 GYN       0.0520
     79 H42         6.6369   22.4991   -3.4811 H           1 GYN       0.0507
     80 H43         6.4124   22.5930   -5.2326 H           1 GYN       0.0507
     81 H44         4.2673   22.1374   -3.8182 H           1 GYN       0.0277
     82 H45         4.1793   23.3975   -5.0420 H           1 GYN       0.0277
     83 H46         3.2296   24.1782   -2.8575 H           1 GYN       0.0210
     84 H47         4.7091   23.6873   -2.0620 H           1 GYN       0.0210
@<TRIPOS>BOND
     1     1     2   2
     2     2     3   1
     3     2     6   1
     4     3     4   1
     5     4     5   1
     6     4     8   1
     7     5     6   1
     8     6     7   1
     9     8     9   2
    10     8    14   1
    11     9    10   1
    12     9    11   1
    13    11    12   1
    14    11    15   1
    15    12    13   1
    16    12    33   1
    17    12    37   1
    18    13    14   1
    19    15    16   2
    20    16    17   1
    21    16    18   1
    22    18    19   1
    23    18    20   1
    24    20    21   1
    25    21    22   1
    26    22    23   1
    27    22    26   1
    28    23    24   1
    29    24    25   1
    30    24    27   1
    31    26    27   1
    32    27    28   1
    33    28    29   1
    34    28    30   2
    35    30    31   1
    36    31    32   1
    37    32    33   1
    38    33    34   2
    39    34    35   1
    40    35    36   1
    41    36    37   1
    42     4    38   1
    43     5    39   1
    44     5    40   1
    45     6    41   1
    46     7    42   1
    47     7    43   1
    48     7    44   1
    49    10    45   1
    50    10    46   1
    51    10    47   1
    52    11    48   1
    53    13    49   1
    54    13    50   1
    55    14    51   1
    56    14    52   1
    57    15    53   1
    58    17    54   1
    59    17    55   1
    60    17    56   1
    61    18    57   1
    62    19    58   1
    63    20    59   1
    64    20    60   1
    65    21    61   1
    66    21    62   1
    67    22    63   1
    68    23    64   1
    69    23    65   1
    70    24    66   1
    71    25    67   1
    72    25    68   1
    73    25    69   1
    74    27    70   1
    75    29    71   1
    76    29    72   1
    77    29    73   1
    78    30    74   1
    79    31    75   1
    80    31    76   1
    81    32    77   1
    82    32    78   1
    83    35    79   1
    84    35    80   1
    85    36    81   1
    86    36    82   1
    87    37    83   1
    88    37    84   1
@<TRIPOS>SUBSTRUCTURE
     1  GYN      2

