@<TRIPOS>MOLECULE
2x00_ligand_065
    84    88
SMALL
GAST_HUCK
****
This file was generated by PARSER (from files_GN.cpp)

@<TRIPOS>ATOM
      1 O6         -2.4347   31.6994   -3.3198 O.2         1 GYN      -0.3700
      2 C5         -1.3600   30.8834   -3.2813 C.2         1 GYN       0.2385
      3 O1         -0.4018   30.8994   -4.2275 O.3         1 GYN      -0.2655
      4 C2          0.6809   29.9934   -3.9882 C.3         1 GYN       0.1059
      5 C3          0.2781   29.3418   -2.6250 C.3         1 GYN       0.0041
      6 C4         -1.0394   30.0147   -2.1526 C.3         1 GYN       0.0613
      7 C7         -2.1563   28.9969   -1.8138 C.3         1 GYN      -0.0438
      8 C8          0.9612   29.0426   -5.1009 C.2         1 GYN      -0.0559
      9 C13         1.9782   28.1212   -5.0731 C.2         1 GYN      -0.0876
     10 C14         2.5940   27.7667   -3.7673 C.3         1 GYN      -0.0498
     11 C12         2.3379   27.2852   -6.2694 C.3         1 GYN      -0.0250
     12 C27         1.8167   27.8566   -7.6654 C.3         1 GYN       0.0148
     13 C10         0.3022   28.1819   -7.4299 C.3         1 GYN      -0.0494
     14 C9          0.1041   29.2046   -6.2897 C.3         1 GYN      -0.0395
     15 C15         3.7843   26.9707   -6.3049 C.2         1 GYN      -0.1023
     16 C16         4.4088   25.8150   -5.9496 C.2         1 GYN      -0.0548
     17 C19         3.6469   24.5959   -5.6651 C.3         1 GYN      -0.0377
     18 C17         5.8444   25.8482   -5.5718 C.3         1 GYN       0.0804
     19 O20         5.9146   25.6571   -4.1553 O.3         1 GYN      -0.3807
     20 C18         6.8189   24.8249   -6.2334 C.3         1 GYN      -0.0158
     21 C21         7.3725   25.1817   -7.6416 C.3         1 GYN      -0.0223
     22 C43         6.3659   25.0426   -8.8109 C.3         1 GYN       0.0623
     23 C47         7.0134   25.2002  -10.1979 C.3         1 GYN      -0.0197
     24 C48         5.9708   24.5375  -11.1113 C.3         1 GYN      -0.0066
     25 C49         6.5625   23.9974  -12.4385 C.3         1 GYN      -0.0582
     26 O43         5.7722   23.7366   -8.8425 O.3         1 GYN      -0.3622
     27 C37         5.3295   23.4569  -10.1880 C.3         1 GYN       0.0865
     28 C36         3.8615   23.3833  -10.3309 C.2         1 GYN      -0.0553
     29 C38         3.2871   22.5358  -11.3748 C.3         1 GYN      -0.0379
     30 C35         3.0782   24.1844   -9.5772 C.2         1 GYN      -0.1039
     31 C34         1.6622   24.4795   -9.7743 C.3         1 GYN      -0.0315
     32 C33         1.1204   25.6112   -8.8408 C.3         1 GYN       0.0100
     33 C32         1.8838   26.8751   -8.7993 C.2         1 GYN       0.0383
     34 N31         2.5094   27.1430   -9.8984 N.2         1 GYN      -0.2722
     35 C30         3.3167   28.2122  -10.2571 C.3         1 GYN       0.0432
     36 C46         3.7604   29.0344   -9.0318 C.3         1 GYN      -0.0375
     37 C28         2.5591   29.2070   -8.0663 C.3         1 GYN      -0.0530
     38 H1          1.5621   30.6325   -3.8525 H           1 GYN       0.0753
     39 H2          1.0787   29.5121   -1.8875 H           1 GYN       0.0338
     40 H3          0.1289   28.2583   -2.7384 H           1 GYN       0.0338
     41 H4         -0.8484   30.6283   -1.2690 H           1 GYN       0.0553
     42 H5         -3.0821   29.5116   -1.5532 H           1 GYN       0.0258
     43 H6         -1.8496   28.3894   -0.9589 H           1 GYN       0.0258
     44 H7         -2.3417   28.3439   -2.6660 H           1 GYN       0.0258
     45 H8          1.8687   27.2179   -3.1552 H           1 GYN       0.0329
     46 H9          2.9298   28.6588   -3.2254 H           1 GYN       0.0329
     47 H10         3.4732   27.1230   -3.8341 H           1 GYN       0.0329
     48 H11         1.7907   26.3680   -6.0902 H           1 GYN       0.0417
     49 H12        -0.2415   27.2777   -7.1481 H           1 GYN       0.0226
     50 H13        -0.1643   28.5627   -8.3469 H           1 GYN       0.0226
     51 H14         0.2584   30.2118   -6.7009 H           1 GYN       0.0362
     52 H15        -0.9502   29.1446   -5.9875 H           1 GYN       0.0362
     53 H16         4.3630   27.7718   -6.4026 H           1 GYN       0.0252
     54 H17         2.9532   24.7668   -4.8404 H           1 GYN       0.0377
     55 H18         4.2744   23.7536   -5.3752 H           1 GYN       0.0377
     56 H19         3.0791   24.2909   -6.5414 H           1 GYN       0.0377
     57 H20         6.2810   26.8340   -5.7432 H           1 GYN       0.0742
     58 H21         5.7353   26.5337   -3.7577 H           1 GYN       0.2129
     59 H22         6.3877   23.8229   -6.2576 H           1 GYN       0.0312
     60 H23         7.6971   24.7594   -5.5852 H           1 GYN       0.0312
     61 H24         8.2150   24.5148   -7.8426 H           1 GYN       0.0293
     62 H25         7.7654   26.2027   -7.6290 H           1 GYN       0.0293
     63 H26         5.5885   25.8026   -8.6881 H           1 GYN       0.0598
     64 H27         7.9658   24.6635  -10.2451 H           1 GYN       0.0295
     65 H28         7.1764   26.2509  -10.4534 H           1 GYN       0.0295
     66 H29         5.2341   25.3067  -11.3649 H           1 GYN       0.0345
     67 H30         5.7727   23.5602  -13.0517 H           1 GYN       0.0235
     68 H31         7.3181   23.2331  -12.2454 H           1 GYN       0.0235
     69 H32         7.0239   24.8120  -13.0006 H           1 GYN       0.0235
     70 H33         5.7602   22.4757  -10.4086 H           1 GYN       0.0747
     71 H34         2.6146   21.8021  -10.9266 H           1 GYN       0.0376
     72 H35         4.0516   21.9935  -11.9280 H           1 GYN       0.0376
     73 H36         2.7303   23.1320  -12.0984 H           1 GYN       0.0376
     74 H37         3.5209   24.7060   -8.8615 H           1 GYN       0.0245
     75 H38         1.0739   23.5740   -9.6222 H           1 GYN       0.0369
     76 H39         1.5051   24.7995  -10.8054 H           1 GYN       0.0369
     77 H40         1.0323   25.1861   -7.8413 H           1 GYN       0.0520
     78 H41         0.1083   25.8525   -9.1733 H           1 GYN       0.0520
     79 H42         2.7615   28.8412  -10.9575 H           1 GYN       0.0507
     80 H43         4.1974   27.8211  -10.7713 H           1 GYN       0.0507
     81 H44         4.1302   30.0108   -9.3572 H           1 GYN       0.0277
     82 H45         4.5809   28.5120   -8.5407 H           1 GYN       0.0277
     83 H46         2.9075   29.7397   -7.1812 H           1 GYN       0.0210
     84 H47         1.8667   29.8831   -8.5807 H           1 GYN       0.0210
@<TRIPOS>BOND
     1     1     2   2
     2     2     3   1
     3     2     6   1
     4     3     4   1
     5     4     5   1
     6     4     8   1
     7     5     6   1
     8     6     7   1
     9     8     9   2
    10     8    14   1
    11     9    10   1
    12     9    11   1
    13    11    12   1
    14    11    15   1
    15    12    13   1
    16    12    33   1
    17    12    37   1
    18    13    14   1
    19    15    16   2
    20    16    17   1
    21    16    18   1
    22    18    19   1
    23    18    20   1
    24    20    21   1
    25    21    22   1
    26    22    23   1
    27    22    26   1
    28    23    24   1
    29    24    25   1
    30    24    27   1
    31    26    27   1
    32    27    28   1
    33    28    29   1
    34    28    30   2
    35    30    31   1
    36    31    32   1
    37    32    33   1
    38    33    34   2
    39    34    35   1
    40    35    36   1
    41    36    37   1
    42     4    38   1
    43     5    39   1
    44     5    40   1
    45     6    41   1
    46     7    42   1
    47     7    43   1
    48     7    44   1
    49    10    45   1
    50    10    46   1
    51    10    47   1
    52    11    48   1
    53    13    49   1
    54    13    50   1
    55    14    51   1
    56    14    52   1
    57    15    53   1
    58    17    54   1
    59    17    55   1
    60    17    56   1
    61    18    57   1
    62    19    58   1
    63    20    59   1
    64    20    60   1
    65    21    61   1
    66    21    62   1
    67    22    63   1
    68    23    64   1
    69    23    65   1
    70    24    66   1
    71    25    67   1
    72    25    68   1
    73    25    69   1
    74    27    70   1
    75    29    71   1
    76    29    72   1
    77    29    73   1
    78    30    74   1
    79    31    75   1
    80    31    76   1
    81    32    77   1
    82    32    78   1
    83    35    79   1
    84    35    80   1
    85    36    81   1
    86    36    82   1
    87    37    83   1
    88    37    84   1
@<TRIPOS>SUBSTRUCTURE
     1  GYN      2

