@<TRIPOS>MOLECULE
2x00_ligand_010
    84    88
SMALL
GAST_HUCK
****
This file was generated by PARSER (from files_GN.cpp)

@<TRIPOS>ATOM
      1 O6          7.1942   24.6259   -7.1871 O.2         1 GYN      -0.3700
      2 C5          6.8364   24.1026   -8.3822 C.2         1 GYN       0.2385
      3 O1          7.6211   23.2336   -9.0419 O.3         1 GYN      -0.2655
      4 C2          7.0202   22.7390  -10.2347 C.3         1 GYN       0.1059
      5 C3          5.6989   23.5549  -10.3734 C.3         1 GYN       0.0041
      6 C4          5.5329   24.3013   -9.0166 C.3         1 GYN       0.0613
      7 C7          5.1422   25.7981   -9.1329 C.3         1 GYN      -0.0438
      8 C8          7.9829   22.7192  -11.3690 C.2         1 GYN      -0.0559
      9 C13         8.4319   23.8182  -12.0471 C.2         1 GYN      -0.0876
     10 C14         8.3006   25.1634  -11.4462 C.3         1 GYN      -0.0498
     11 C12         9.2131   23.7279  -13.3268 C.3         1 GYN      -0.0250
     12 C27         9.4872   22.2489  -13.8906 C.3         1 GYN       0.0148
     13 C10         9.7568   21.3752  -12.6183 C.3         1 GYN      -0.0494
     14 C9          8.5601   21.3946  -11.6422 C.3         1 GYN      -0.0395
     15 C15         8.5982   24.6200  -14.3354 C.2         1 GYN      -0.1023
     16 C16         9.0819   25.7460  -14.9162 C.2         1 GYN      -0.0548
     17 C19        10.4095   26.2798  -14.6040 C.3         1 GYN      -0.0377
     18 C17         8.2185   26.5417  -15.8125 C.3         1 GYN       0.0804
     19 O20         8.0490   27.8403  -15.2321 O.3         1 GYN      -0.3807
     20 C18         8.7239   26.7108  -17.2807 C.3         1 GYN      -0.0158
     21 C21         8.4781   25.5058  -18.2315 C.3         1 GYN      -0.0223
     22 C43         9.5259   24.3589  -18.1754 C.3         1 GYN       0.0623
     23 C47         9.1747   23.1911  -19.1214 C.3         1 GYN      -0.0197
     24 C48        10.5130   22.7841  -19.7770 C.3         1 GYN      -0.0066
     25 C49        10.5034   22.9554  -21.3210 C.3         1 GYN      -0.0582
     26 O43        10.8199   24.8170  -18.6015 O.3         1 GYN      -0.3622
     27 C37        11.5788   23.6857  -19.0751 C.3         1 GYN       0.0865
     28 C36        12.4083   22.9778  -18.0727 C.2         1 GYN      -0.0553
     29 C38        13.2080   21.8372  -18.5240 C.3         1 GYN      -0.0379
     30 C35        12.4862   23.4121  -16.7946 C.2         1 GYN      -0.1039
     31 C34        13.0516   22.7130  -15.6462 C.3         1 GYN      -0.0315
     32 C33        12.0413   22.5734  -14.4619 C.3         1 GYN       0.0100
     33 C32        10.6917   22.0661  -14.7681 C.2         1 GYN       0.0383
     34 N31        10.7071   21.1263  -15.6559 N.2         1 GYN      -0.2722
     35 C30         9.7243   20.2526  -16.1065 C.3         1 GYN       0.0432
     36 C46         8.4185   20.2928  -15.2751 C.3         1 GYN      -0.0375
     37 C28         8.2247   21.7129  -14.6942 C.3         1 GYN      -0.0530
     38 H1          6.7093   21.7174   -9.9804 H           1 GYN       0.0753
     39 H2          4.8421   22.8933  -10.5478 H           1 GYN       0.0338
     40 H3          5.7478   24.2558  -11.2121 H           1 GYN       0.0338
     41 H4          4.7826   23.7970   -8.4016 H           1 GYN       0.0553
     42 H5          5.0658   26.2449   -8.1362 H           1 GYN       0.0258
     43 H6          4.1696   25.8954   -9.6227 H           1 GYN       0.0258
     44 H7          5.8858   26.3552   -9.7088 H           1 GYN       0.0258
     45 H8          8.8693   25.9210  -11.9817 H           1 GYN       0.0329
     46 H9          8.6837   25.1733  -10.4243 H           1 GYN       0.0329
     47 H10         7.2559   25.4818  -11.4576 H           1 GYN       0.0329
     48 H11        10.1758   24.1350  -13.0336 H           1 GYN       0.0417
     49 H12        10.6291   21.7666  -12.0797 H           1 GYN       0.0226
     50 H13         9.9888   20.3387  -12.8734 H           1 GYN       0.0226
     51 H14         7.7765   20.7334  -12.0134 H           1 GYN       0.0362
     52 H15         8.9258   20.9639  -10.7062 H           1 GYN       0.0362
     53 H16         7.6610   24.3858  -14.5555 H           1 GYN       0.0252
     54 H17        10.5051   26.4821  -13.5387 H           1 GYN       0.0377
     55 H18        10.6198   27.2203  -15.1184 H           1 GYN       0.0377
     56 H19        11.1753   25.5741  -14.9037 H           1 GYN       0.0377
     57 H20         7.2020   26.1333  -15.8747 H           1 GYN       0.0742
     58 H21         7.4906   27.6986  -14.4350 H           1 GYN       0.2129
     59 H22         9.7807   26.9855  -17.3041 H           1 GYN       0.0312
     60 H23         8.1788   27.5593  -17.7109 H           1 GYN       0.0312
     61 H24         8.4652   25.8875  -19.2552 H           1 GYN       0.0293
     62 H25         7.4862   25.0909  -18.0317 H           1 GYN       0.0293
     63 H26         9.5974   23.9845  -17.1507 H           1 GYN       0.0598
     64 H27         8.4444   23.4934  -19.8739 H           1 GYN       0.0295
     65 H28         8.7419   22.3626  -18.5549 H           1 GYN       0.0295
     66 H29        10.6857   21.7225  -19.5763 H           1 GYN       0.0345
     67 H30        11.4638   22.6480  -21.7404 H           1 GYN       0.0235
     68 H31        10.3199   23.9975  -21.5932 H           1 GYN       0.0235
     69 H32         9.7222   22.3340  -21.7644 H           1 GYN       0.0235
     70 H33        12.2816   24.0914  -19.8106 H           1 GYN       0.0747
     71 H34        14.2571   21.9790  -18.2537 H           1 GYN       0.0376
     72 H35        13.1737   21.7051  -19.6084 H           1 GYN       0.0376
     73 H36        12.8410   20.9161  -18.0670 H           1 GYN       0.0376
     74 H37        12.0953   24.2959  -16.5865 H           1 GYN       0.0245
     75 H38        13.9225   23.2774  -15.2975 H           1 GYN       0.0369
     76 H39        13.4075   21.7118  -15.8988 H           1 GYN       0.0369
     77 H40        11.9899   23.5494  -13.9952 H           1 GYN       0.0520
     78 H41        12.4905   21.9038  -13.7221 H           1 GYN       0.0520
     79 H42        10.1265   19.2383  -16.1006 H           1 GYN       0.0507
     80 H43         9.5084   20.5199  -17.1414 H           1 GYN       0.0507
     81 H44         8.4669   19.5584  -14.4679 H           1 GYN       0.0277
     82 H45         7.5665   20.0265  -15.9067 H           1 GYN       0.0277
     83 H46         8.0409   22.3545  -15.5598 H           1 GYN       0.0210
     84 H47         7.3167   21.7360  -14.0901 H           1 GYN       0.0210
@<TRIPOS>BOND
     1     1     2   2
     2     2     3   1
     3     2     6   1
     4     3     4   1
     5     4     5   1
     6     4     8   1
     7     5     6   1
     8     6     7   1
     9     8     9   2
    10     8    14   1
    11     9    10   1
    12     9    11   1
    13    11    12   1
    14    11    15   1
    15    12    13   1
    16    12    33   1
    17    12    37   1
    18    13    14   1
    19    15    16   2
    20    16    17   1
    21    16    18   1
    22    18    19   1
    23    18    20   1
    24    20    21   1
    25    21    22   1
    26    22    23   1
    27    22    26   1
    28    23    24   1
    29    24    25   1
    30    24    27   1
    31    26    27   1
    32    27    28   1
    33    28    29   1
    34    28    30   2
    35    30    31   1
    36    31    32   1
    37    32    33   1
    38    33    34   2
    39    34    35   1
    40    35    36   1
    41    36    37   1
    42     4    38   1
    43     5    39   1
    44     5    40   1
    45     6    41   1
    46     7    42   1
    47     7    43   1
    48     7    44   1
    49    10    45   1
    50    10    46   1
    51    10    47   1
    52    11    48   1
    53    13    49   1
    54    13    50   1
    55    14    51   1
    56    14    52   1
    57    15    53   1
    58    17    54   1
    59    17    55   1
    60    17    56   1
    61    18    57   1
    62    19    58   1
    63    20    59   1
    64    20    60   1
    65    21    61   1
    66    21    62   1
    67    22    63   1
    68    23    64   1
    69    23    65   1
    70    24    66   1
    71    25    67   1
    72    25    68   1
    73    25    69   1
    74    27    70   1
    75    29    71   1
    76    29    72   1
    77    29    73   1
    78    30    74   1
    79    31    75   1
    80    31    76   1
    81    32    77   1
    82    32    78   1
    83    35    79   1
    84    35    80   1
    85    36    81   1
    86    36    82   1
    87    37    83   1
    88    37    84   1
@<TRIPOS>SUBSTRUCTURE
     1  GYN      2

