@<TRIPOS>MOLECULE
2x00_ligand_094
    84    88
SMALL
GAST_HUCK
****
This file was generated by PARSER (from files_GN.cpp)

@<TRIPOS>ATOM
      1 O6         -4.0100   26.8235   -7.9406 O.2         1 GYN      -0.3700
      2 C5         -2.9839   26.2794   -7.2525 C.2         1 GYN       0.2385
      3 O1         -1.7805   26.8734   -7.1581 O.3         1 GYN      -0.2655
      4 C2         -0.8273   26.1369   -6.3844 C.3         1 GYN       0.1059
      5 C3         -1.6497   24.8891   -5.9144 C.3         1 GYN       0.0041
      6 C4         -3.0722   25.0266   -6.5054 C.3         1 GYN       0.0613
      7 C7         -3.5195   23.7938   -7.3382 C.3         1 GYN      -0.0438
      8 C8          0.4523   25.8511   -7.0899 C.2         1 GYN      -0.0559
      9 C13         1.5496   25.3249   -6.4635 C.2         1 GYN      -0.0876
     10 C14         1.3854   24.6925   -5.1277 C.3         1 GYN      -0.0498
     11 C12         2.8621   25.1229   -7.1689 C.3         1 GYN      -0.0250
     12 C27         3.0464   25.8928   -8.5622 C.3         1 GYN       0.0148
     13 C10         1.6865   25.6977   -9.3196 C.3         1 GYN      -0.0494
     14 C9          0.4851   26.2266   -8.5087 C.3         1 GYN      -0.0395
     15 C15         3.9914   25.3494   -6.2460 C.2         1 GYN      -0.1023
     16 C16         4.8182   24.4445   -5.6639 C.2         1 GYN      -0.0548
     17 C19         4.7931   23.0215   -6.0097 C.3         1 GYN      -0.0377
     18 C17         5.6759   24.8759   -4.5448 C.3         1 GYN       0.0804
     19 O20         5.2951   24.1219   -3.3894 O.3         1 GYN      -0.3807
     20 C18         7.2019   24.7197   -4.7930 C.3         1 GYN      -0.0158
     21 C21         7.8724   25.7761   -5.7134 C.3         1 GYN      -0.0223
     22 C43         7.7428   25.5351   -7.2431 C.3         1 GYN       0.0623
     23 C47         8.4974   26.5871   -8.0885 C.3         1 GYN      -0.0197
     24 C48         9.5323   25.7682   -8.8761 C.3         1 GYN      -0.0066
     25 C49        10.9093   25.7306   -8.1530 C.3         1 GYN      -0.0582
     26 O43         8.3134   24.2659   -7.6151 O.3         1 GYN      -0.3622
     27 C37         8.8579   24.3709   -8.9509 C.3         1 GYN       0.0865
     28 C36         7.8645   24.1611  -10.0304 C.2         1 GYN      -0.0553
     29 C38         8.2366   24.4668  -11.4114 C.3         1 GYN      -0.0379
     30 C35         6.6781   23.5749   -9.7502 C.2         1 GYN      -0.1039
     31 C34         5.5059   23.4493  -10.6019 C.3         1 GYN      -0.0315
     32 C33         4.2128   23.9416   -9.8859 C.3         1 GYN       0.0100
     33 C32         4.1214   25.3551   -9.4691 C.2         1 GYN       0.0383
     34 N31         4.8077   26.1609  -10.2124 N.2         1 GYN      -0.2722
     35 C30         4.8155   27.5517  -10.3177 C.3         1 GYN       0.0432
     36 C46         3.6387   28.2313   -9.5814 C.3         1 GYN      -0.0375
     37 C28         3.3380   27.4346   -8.2919 C.3         1 GYN      -0.0530
     38 H1         -0.5961   26.7857   -5.5321 H           1 GYN       0.0753
     39 H2         -1.7026   24.8785   -4.8204 H           1 GYN       0.0338
     40 H3         -1.1912   23.9462   -6.2438 H           1 GYN       0.0338
     41 H4         -3.7869   25.1760   -5.6939 H           1 GYN       0.0553
     42 H5         -4.4621   23.9860   -7.8444 H           1 GYN       0.0258
     43 H6         -3.6552   22.9349   -6.6703 H           1 GYN       0.0258
     44 H7         -2.7725   23.5230   -8.0902 H           1 GYN       0.0258
     45 H8          2.3205   24.4442   -4.6320 H           1 GYN       0.0329
     46 H9          0.8645   23.7343   -5.2359 H           1 GYN       0.0329
     47 H10         0.8370   25.3304   -4.4248 H           1 GYN       0.0329
     48 H11         2.8280   24.0640   -7.4137 H           1 GYN       0.0417
     49 H12         1.4985   24.6333   -9.4971 H           1 GYN       0.0226
     50 H13         1.6865   26.1867  -10.2990 H           1 GYN       0.0226
     51 H14         0.4419   27.3115   -8.5967 H           1 GYN       0.0362
     52 H15        -0.3982   25.8224   -9.0027 H           1 GYN       0.0362
     53 H16         4.0294   26.2710   -5.8803 H           1 GYN       0.0252
     54 H17         3.7927   22.6117   -5.8570 H           1 GYN       0.0377
     55 H18         5.4751   22.4246   -5.4002 H           1 GYN       0.0377
     56 H19         5.0874   22.8790   -7.0446 H           1 GYN       0.0377
     57 H20         5.5003   25.9187   -4.2674 H           1 GYN       0.0742
     58 H21         5.7921   24.5223   -2.6436 H           1 GYN       0.2129
     59 H22         7.4227   23.7181   -5.1614 H           1 GYN       0.0312
     60 H23         7.6808   24.8064   -3.8168 H           1 GYN       0.0312
     61 H24         8.9374   25.7931   -5.4743 H           1 GYN       0.0293
     62 H25         7.4770   26.7616   -5.4660 H           1 GYN       0.0293
     63 H26         6.6872   25.5508   -7.5216 H           1 GYN       0.0598
     64 H27         8.9814   27.3601   -7.4917 H           1 GYN       0.0295
     65 H28         7.8051   27.0744   -8.7811 H           1 GYN       0.0295
     66 H29         9.6932   26.2201   -9.8570 H           1 GYN       0.0345
     67 H30        11.5849   25.0432   -8.6616 H           1 GYN       0.0235
     68 H31        10.8059   25.4033   -7.1200 H           1 GYN       0.0235
     69 H32        11.3507   26.7271   -8.1508 H           1 GYN       0.0235
     70 H33         9.6195   23.5946   -9.0799 H           1 GYN       0.0747
     71 H34         8.0264   23.6152  -12.0625 H           1 GYN       0.0376
     72 H35         9.3002   24.6849  -11.5209 H           1 GYN       0.0376
     73 H36         7.6731   25.3342  -11.7605 H           1 GYN       0.0376
     74 H37         6.5724   23.1645   -8.8532 H           1 GYN       0.0245
     75 H38         5.3760   22.3899  -10.8366 H           1 GYN       0.0369
     76 H39         5.6125   23.9821  -11.5485 H           1 GYN       0.0369
     77 H40         4.0719   23.2929   -9.0306 H           1 GYN       0.0520
     78 H41         3.3846   23.7347  -10.5651 H           1 GYN       0.0520
     79 H42         4.7742   27.8122  -11.3758 H           1 GYN       0.0507
     80 H43         5.7675   27.9151   -9.9200 H           1 GYN       0.0507
     81 H44         2.7519   28.2568  -10.2176 H           1 GYN       0.0277
     82 H45         3.8990   29.2648   -9.3357 H           1 GYN       0.0277
     83 H46         4.2373   27.5439   -7.6802 H           1 GYN       0.0210
     84 H47         2.5262   27.9128   -7.7386 H           1 GYN       0.0210
@<TRIPOS>BOND
     1     1     2   2
     2     2     3   1
     3     2     6   1
     4     3     4   1
     5     4     5   1
     6     4     8   1
     7     5     6   1
     8     6     7   1
     9     8     9   2
    10     8    14   1
    11     9    10   1
    12     9    11   1
    13    11    12   1
    14    11    15   1
    15    12    13   1
    16    12    33   1
    17    12    37   1
    18    13    14   1
    19    15    16   2
    20    16    17   1
    21    16    18   1
    22    18    19   1
    23    18    20   1
    24    20    21   1
    25    21    22   1
    26    22    23   1
    27    22    26   1
    28    23    24   1
    29    24    25   1
    30    24    27   1
    31    26    27   1
    32    27    28   1
    33    28    29   1
    34    28    30   2
    35    30    31   1
    36    31    32   1
    37    32    33   1
    38    33    34   2
    39    34    35   1
    40    35    36   1
    41    36    37   1
    42     4    38   1
    43     5    39   1
    44     5    40   1
    45     6    41   1
    46     7    42   1
    47     7    43   1
    48     7    44   1
    49    10    45   1
    50    10    46   1
    51    10    47   1
    52    11    48   1
    53    13    49   1
    54    13    50   1
    55    14    51   1
    56    14    52   1
    57    15    53   1
    58    17    54   1
    59    17    55   1
    60    17    56   1
    61    18    57   1
    62    19    58   1
    63    20    59   1
    64    20    60   1
    65    21    61   1
    66    21    62   1
    67    22    63   1
    68    23    64   1
    69    23    65   1
    70    24    66   1
    71    25    67   1
    72    25    68   1
    73    25    69   1
    74    27    70   1
    75    29    71   1
    76    29    72   1
    77    29    73   1
    78    30    74   1
    79    31    75   1
    80    31    76   1
    81    32    77   1
    82    32    78   1
    83    35    79   1
    84    35    80   1
    85    36    81   1
    86    36    82   1
    87    37    83   1
    88    37    84   1
@<TRIPOS>SUBSTRUCTURE
     1  GYN      2

