@<TRIPOS>MOLECULE
2x00_ligand_050
    84    88
SMALL
GAST_HUCK
****
This file was generated by PARSER (from files_GN.cpp)

@<TRIPOS>ATOM
      1 O6          5.4314   23.1921   -5.2488 O.2         1 GYN      -0.3700
      2 C5          4.9178   24.3541   -4.7895 C.2         1 GYN       0.2385
      3 O1          3.5911   24.5671   -4.7114 O.3         1 GYN      -0.2655
      4 C2          3.2668   25.8332   -4.1419 C.3         1 GYN       0.1059
      5 C3          4.6410   26.5627   -4.0228 C.3         1 GYN       0.0041
      6 C4          5.7185   25.4638   -4.2499 C.3         1 GYN       0.0613
      7 C7          6.8780   25.8960   -5.1835 C.3         1 GYN      -0.0438
      8 C8          2.2101   26.5980   -4.8624 C.2         1 GYN      -0.0559
      9 C13         2.3127   27.0359   -6.1544 C.2         1 GYN      -0.0876
     10 C14         3.2308   26.3387   -7.0760 C.3         1 GYN      -0.0498
     11 C12         1.3919   28.0784   -6.7282 C.3         1 GYN      -0.0250
     12 C27         0.4616   28.8348   -5.6648 C.3         1 GYN       0.0148
     13 C10        -0.1062   27.6914   -4.7515 C.3         1 GYN      -0.0494
     14 C9          1.0262   26.9052   -4.0462 C.3         1 GYN      -0.0395
     15 C15         2.1347   29.0291   -7.5826 C.2         1 GYN      -0.1023
     16 C16         2.1558   29.1494   -8.9394 C.2         1 GYN      -0.0548
     17 C19         1.3464   28.2714   -9.7937 C.3         1 GYN      -0.0377
     18 C17         3.1967   29.9914   -9.5763 C.3         1 GYN       0.0804
     19 O20         4.1653   29.0974  -10.1302 O.3         1 GYN      -0.3807
     20 C18         2.7915   31.0077  -10.6951 C.3         1 GYN      -0.0158
     21 C21         2.1022   32.3270  -10.2482 C.3         1 GYN      -0.0223
     22 C43         0.6341   32.1899   -9.7695 C.3         1 GYN       0.0623
     23 C47        -0.0779   33.5359   -9.4907 C.3         1 GYN      -0.0197
     24 C48        -1.2920   33.5382  -10.4450 C.3         1 GYN      -0.0066
     25 C49        -1.0347   34.3583  -11.7401 C.3         1 GYN      -0.0582
     26 O43        -0.1574   31.5186  -10.7677 O.3         1 GYN      -0.3622
     27 C37        -1.5067   32.0251  -10.7321 C.3         1 GYN       0.0865
     28 C36        -2.4402   31.3516   -9.7994 C.2         1 GYN      -0.0553
     29 C38        -3.8506   31.7426   -9.8162 C.3         1 GYN      -0.0379
     30 C35        -2.0078   30.3812   -8.9668 C.2         1 GYN      -0.1039
     31 C34        -2.7421   29.7209   -7.8976 C.3         1 GYN      -0.0315
     32 C33        -1.8245   28.8680   -6.9621 C.3         1 GYN       0.0100
     33 C32        -0.7036   29.5538   -6.2856 C.2         1 GYN       0.0383
     34 N31        -0.8824   30.8216   -6.1119 N.2         1 GYN      -0.2722
     35 C30        -0.1130   31.7887   -5.4806 C.3         1 GYN       0.0432
     36 C46         1.3261   31.3083   -5.2124 C.3         1 GYN      -0.0375
     37 C28         1.2948   29.8329   -4.7403 C.3         1 GYN      -0.0530
     38 H1          2.9489   25.5958   -3.1187 H           1 GYN       0.0753
     39 H2          4.7675   27.0130   -3.0290 H           1 GYN       0.0338
     40 H3          4.7370   27.3637   -4.7666 H           1 GYN       0.0338
     41 H4          6.1326   25.1365   -3.2905 H           1 GYN       0.0553
     42 H5          7.5974   25.0766   -5.2859 H           1 GYN       0.0258
     43 H6          7.3960   26.7608   -4.7536 H           1 GYN       0.0258
     44 H7          6.5004   26.1653   -6.1768 H           1 GYN       0.0258
     45 H8          3.1975   26.7038   -8.1004 H           1 GYN       0.0329
     46 H9          2.9703   25.2758   -7.1145 H           1 GYN       0.0329
     47 H10         4.2657   26.4521   -6.7451 H           1 GYN       0.0329
     48 H11         0.7273   27.4947   -7.3617 H           1 GYN       0.0417
     49 H12        -0.6737   26.9718   -5.3501 H           1 GYN       0.0226
     50 H13        -0.7942   28.0868   -3.9976 H           1 GYN       0.0226
     51 H14         1.3458   27.4770   -3.1698 H           1 GYN       0.0362
     52 H15         0.5887   25.9723   -3.6756 H           1 GYN       0.0362
     53 H16         2.8159   29.5580   -7.0896 H           1 GYN       0.0252
     54 H17         0.2888   28.3979   -9.5837 H           1 GYN       0.0377
     55 H18         1.5985   27.2246   -9.6279 H           1 GYN       0.0377
     56 H19         1.4936   28.4582  -10.8561 H           1 GYN       0.0377
     57 H20         3.7411   30.5810   -8.8339 H           1 GYN       0.0742
     58 H21         4.7226   28.8078   -9.3752 H           1 GYN       0.2129
     59 H22         2.1897   30.5238  -11.4644 H           1 GYN       0.0312
     60 H23         3.7192   31.3105  -11.1915 H           1 GYN       0.0312
     61 H24         2.1142   33.0148  -11.0996 H           1 GYN       0.0293
     62 H25         2.6937   32.7855   -9.4512 H           1 GYN       0.0293
     63 H26         0.6451   31.6004   -8.8502 H           1 GYN       0.0598
     64 H27         0.5718   34.4027   -9.6441 H           1 GYN       0.0295
     65 H28        -0.4291   33.5607   -8.4555 H           1 GYN       0.0295
     66 H29        -2.1555   33.9862   -9.9431 H           1 GYN       0.0345
     67 H30        -1.9103   34.3135  -12.3908 H           1 GYN       0.0235
     68 H31        -0.1725   33.9674  -12.2854 H           1 GYN       0.0235
     69 H32        -0.8479   35.4049  -11.4918 H           1 GYN       0.0235
     70 H33        -1.9109   31.8767  -11.7379 H           1 GYN       0.0747
     71 H34        -4.4799   30.8730  -10.0145 H           1 GYN       0.0376
     72 H35        -4.0659   32.4833  -10.5893 H           1 GYN       0.0376
     73 H36        -4.1325   32.1749   -8.8552 H           1 GYN       0.0376
     74 H37        -1.0701   30.0973   -9.0566 H           1 GYN       0.0245
     75 H38        -3.5009   29.0707   -8.3403 H           1 GYN       0.0369
     76 H39        -3.2557   30.4687   -7.2868 H           1 GYN       0.0369
     77 H40        -1.4492   28.0362   -7.5589 H           1 GYN       0.0520
     78 H41        -2.4640   28.4389   -6.1880 H           1 GYN       0.0520
     79 H42        -0.6029   32.0486   -4.5394 H           1 GYN       0.0507
     80 H43        -0.0872   32.6829   -6.1053 H           1 GYN       0.0507
     81 H44         1.7833   31.9377   -4.4442 H           1 GYN       0.0277
     82 H45         1.9169   31.4199   -6.1224 H           1 GYN       0.0277
     83 H46         2.3261   29.4910   -4.6202 H           1 GYN       0.0210
     84 H47         0.8592   29.8598   -3.7359 H           1 GYN       0.0210
@<TRIPOS>BOND
     1     1     2   2
     2     2     3   1
     3     2     6   1
     4     3     4   1
     5     4     5   1
     6     4     8   1
     7     5     6   1
     8     6     7   1
     9     8     9   2
    10     8    14   1
    11     9    10   1
    12     9    11   1
    13    11    12   1
    14    11    15   1
    15    12    13   1
    16    12    33   1
    17    12    37   1
    18    13    14   1
    19    15    16   2
    20    16    17   1
    21    16    18   1
    22    18    19   1
    23    18    20   1
    24    20    21   1
    25    21    22   1
    26    22    23   1
    27    22    26   1
    28    23    24   1
    29    24    25   1
    30    24    27   1
    31    26    27   1
    32    27    28   1
    33    28    29   1
    34    28    30   2
    35    30    31   1
    36    31    32   1
    37    32    33   1
    38    33    34   2
    39    34    35   1
    40    35    36   1
    41    36    37   1
    42     4    38   1
    43     5    39   1
    44     5    40   1
    45     6    41   1
    46     7    42   1
    47     7    43   1
    48     7    44   1
    49    10    45   1
    50    10    46   1
    51    10    47   1
    52    11    48   1
    53    13    49   1
    54    13    50   1
    55    14    51   1
    56    14    52   1
    57    15    53   1
    58    17    54   1
    59    17    55   1
    60    17    56   1
    61    18    57   1
    62    19    58   1
    63    20    59   1
    64    20    60   1
    65    21    61   1
    66    21    62   1
    67    22    63   1
    68    23    64   1
    69    23    65   1
    70    24    66   1
    71    25    67   1
    72    25    68   1
    73    25    69   1
    74    27    70   1
    75    29    71   1
    76    29    72   1
    77    29    73   1
    78    30    74   1
    79    31    75   1
    80    31    76   1
    81    32    77   1
    82    32    78   1
    83    35    79   1
    84    35    80   1
    85    36    81   1
    86    36    82   1
    87    37    83   1
    88    37    84   1
@<TRIPOS>SUBSTRUCTURE
     1  GYN      2

