@<TRIPOS>MOLECULE
2x00_ligand_046
    84    88
SMALL
GAST_HUCK
****
This file was generated by PARSER (from files_GN.cpp)

@<TRIPOS>ATOM
      1 O6          8.4457   35.0733  -11.9698 O.2         1 GYN      -0.3700
      2 C5          7.6844   34.0143  -11.6247 C.2         1 GYN       0.2385
      3 O1          8.2105   32.7956  -11.3857 O.3         1 GYN      -0.2655
      4 C2          7.2395   31.8307  -10.9832 C.3         1 GYN       0.1059
      5 C3          5.8949   32.6153  -11.0024 C.3         1 GYN       0.0041
      6 C4          6.2423   34.0775  -11.3891 C.3         1 GYN       0.0613
      7 C7          5.4701   34.6084  -12.6238 C.3         1 GYN      -0.0438
      8 C8          7.2508   30.6007  -11.8162 C.2         1 GYN      -0.0559
      9 C13         7.0015   29.3538  -11.3141 C.2         1 GYN      -0.0876
     10 C14         6.3830   29.2304   -9.9801 C.3         1 GYN      -0.0498
     11 C12         7.1801   28.1064  -12.1301 C.3         1 GYN      -0.0250
     12 C27         7.9735   28.3016  -13.5040 C.3         1 GYN       0.0148
     13 C10         7.3380   29.5781  -14.1578 C.3         1 GYN      -0.0494
     14 C9          7.4854   30.8208  -13.2497 C.3         1 GYN      -0.0395
     15 C15         7.7516   27.0158  -11.3068 C.2         1 GYN      -0.1023
     16 C16         7.1403   25.9065  -10.8125 C.2         1 GYN      -0.0548
     17 C19         5.7553   25.5815  -11.1677 C.3         1 GYN      -0.0377
     18 C17         7.7758   25.1562   -9.7049 C.3         1 GYN       0.0804
     19 O20         7.0280   25.5016   -8.5342 O.3         1 GYN      -0.3807
     20 C18         7.8586   23.5959   -9.8070 C.3         1 GYN      -0.0158
     21 C21         9.0348   23.0041  -10.6302 C.3         1 GYN      -0.0223
     22 C43         8.9056   23.1283  -12.1676 C.3         1 GYN       0.0623
     23 C47        10.0096   22.3901  -12.9478 C.3         1 GYN      -0.0197
     24 C48         9.3784   22.2413  -14.3438 C.3         1 GYN      -0.0066
     25 C49         9.9357   21.0417  -15.1521 C.3         1 GYN      -0.0582
     26 O43         7.6846   22.5422  -12.6473 O.3         1 GYN      -0.3622
     27 C37         7.8519   22.1695  -14.0323 C.3         1 GYN       0.0865
     28 C36         7.0436   22.9770  -14.9695 C.2         1 GYN      -0.0553
     29 C38         6.5931   22.3825  -16.2264 C.3         1 GYN      -0.0379
     30 C35         6.8559   24.2898  -14.7169 C.2         1 GYN      -0.1039
     31 C34         6.3982   25.3173  -15.6423 C.3         1 GYN      -0.0315
     32 C33         6.5147   26.7719  -15.0736 C.3         1 GYN       0.0100
     33 C32         7.8076   27.1711  -14.4789 C.2         1 GYN       0.0383
     34 N31         8.8316   26.5496  -14.9631 N.2         1 GYN      -0.2722
     35 C30        10.1845   26.6310  -14.6696 C.3         1 GYN       0.0432
     36 C46        10.4472   27.3626  -13.3389 C.3         1 GYN      -0.0375
     37 C28         9.5199   28.5990  -13.2548 C.3         1 GYN      -0.0530
     38 H1          7.5102   31.6049   -9.9507 H           1 GYN       0.0753
     39 H2          5.4287   32.5919  -10.0119 H           1 GYN       0.0338
     40 H3          5.1837   32.1752  -11.7077 H           1 GYN       0.0338
     41 H4          6.0609   34.7450  -10.5417 H           1 GYN       0.0553
     42 H5          5.7639   35.6372  -12.8407 H           1 GYN       0.0258
     43 H6          4.3971   34.5922  -12.4226 H           1 GYN       0.0258
     44 H7          5.6712   33.9931  -13.5036 H           1 GYN       0.0258
     45 H8          5.5348   29.9102   -9.8803 H           1 GYN       0.0329
     46 H9          7.1173   29.4537   -9.2046 H           1 GYN       0.0329
     47 H10         5.9944   28.2388   -9.7700 H           1 GYN       0.0329
     48 H11         6.1552   27.8495  -12.3931 H           1 GYN       0.0417
     49 H12         6.2675   29.4255  -14.3329 H           1 GYN       0.0226
     50 H13         7.7954   29.7884  -15.1311 H           1 GYN       0.0226
     51 H14         8.4940   31.2233  -13.3814 H           1 GYN       0.0362
     52 H15         6.7886   31.5781  -13.6206 H           1 GYN       0.0362
     53 H16         8.6579   27.2146  -10.9540 H           1 GYN       0.0252
     54 H17         5.0833   26.3980  -10.9086 H           1 GYN       0.0377
     55 H18         5.3731   24.7016  -10.6543 H           1 GYN       0.0377
     56 H19         5.6767   25.3944  -12.2339 H           1 GYN       0.0377
     57 H20         8.7935   25.5078   -9.5103 H           1 GYN       0.0742
     58 H21         7.5461   25.1557   -7.7760 H           1 GYN       0.2129
     59 H22         6.9247   23.1685  -10.1628 H           1 GYN       0.0312
     60 H23         7.9872   23.2180   -8.7893 H           1 GYN       0.0312
     61 H24         9.1057   21.9430  -10.3815 H           1 GYN       0.0293
     62 H25         9.9674   23.4728  -10.3100 H           1 GYN       0.0293
     63 H26         8.9391   24.1914  -12.4288 H           1 GYN       0.0598
     64 H27        10.2039   21.4088  -12.5042 H           1 GYN       0.0295
     65 H28        10.9408   22.9657  -12.9782 H           1 GYN       0.0295
     66 H29         9.6077   23.1538  -14.9081 H           1 GYN       0.0345
     67 H30         9.4657   21.0034  -16.1364 H           1 GYN       0.0235
     68 H31         9.7419   20.0997  -14.6342 H           1 GYN       0.0235
     69 H32        11.0139   21.1506  -15.2882 H           1 GYN       0.0235
     70 H33         7.5146   21.1293  -14.0688 H           1 GYN       0.0747
     71 H34         5.5144   22.5148  -16.3312 H           1 GYN       0.0376
     72 H35         6.8010   21.3119  -16.2810 H           1 GYN       0.0376
     73 H36         7.0933   22.8580  -17.0720 H           1 GYN       0.0376
     74 H37         7.1499   24.6207  -13.8356 H           1 GYN       0.0245
     75 H38         5.3579   25.1196  -15.9138 H           1 GYN       0.0369
     76 H39         6.9979   25.2650  -16.5547 H           1 GYN       0.0369
     77 H40         5.7132   26.8856  -14.3447 H           1 GYN       0.0520
     78 H41         6.2945   27.4624  -15.8911 H           1 GYN       0.0520
     79 H42        10.6827   27.1513  -15.4908 H           1 GYN       0.0507
     80 H43        10.5912   25.6198  -14.6105 H           1 GYN       0.0507
     81 H44        11.4928   27.6748  -13.2869 H           1 GYN       0.0277
     82 H45        10.2636   26.6780  -12.5110 H           1 GYN       0.0277
     83 H46         9.6787   29.0800  -12.2869 H           1 GYN       0.0210
     84 H47         9.8940   29.2962  -14.0117 H           1 GYN       0.0210
@<TRIPOS>BOND
     1     1     2   2
     2     2     3   1
     3     2     6   1
     4     3     4   1
     5     4     5   1
     6     4     8   1
     7     5     6   1
     8     6     7   1
     9     8     9   2
    10     8    14   1
    11     9    10   1
    12     9    11   1
    13    11    12   1
    14    11    15   1
    15    12    13   1
    16    12    33   1
    17    12    37   1
    18    13    14   1
    19    15    16   2
    20    16    17   1
    21    16    18   1
    22    18    19   1
    23    18    20   1
    24    20    21   1
    25    21    22   1
    26    22    23   1
    27    22    26   1
    28    23    24   1
    29    24    25   1
    30    24    27   1
    31    26    27   1
    32    27    28   1
    33    28    29   1
    34    28    30   2
    35    30    31   1
    36    31    32   1
    37    32    33   1
    38    33    34   2
    39    34    35   1
    40    35    36   1
    41    36    37   1
    42     4    38   1
    43     5    39   1
    44     5    40   1
    45     6    41   1
    46     7    42   1
    47     7    43   1
    48     7    44   1
    49    10    45   1
    50    10    46   1
    51    10    47   1
    52    11    48   1
    53    13    49   1
    54    13    50   1
    55    14    51   1
    56    14    52   1
    57    15    53   1
    58    17    54   1
    59    17    55   1
    60    17    56   1
    61    18    57   1
    62    19    58   1
    63    20    59   1
    64    20    60   1
    65    21    61   1
    66    21    62   1
    67    22    63   1
    68    23    64   1
    69    23    65   1
    70    24    66   1
    71    25    67   1
    72    25    68   1
    73    25    69   1
    74    27    70   1
    75    29    71   1
    76    29    72   1
    77    29    73   1
    78    30    74   1
    79    31    75   1
    80    31    76   1
    81    32    77   1
    82    32    78   1
    83    35    79   1
    84    35    80   1
    85    36    81   1
    86    36    82   1
    87    37    83   1
    88    37    84   1
@<TRIPOS>SUBSTRUCTURE
     1  GYN      2

