@<TRIPOS>MOLECULE
2x00_ligand_031
    84    88
SMALL
GAST_HUCK
****
This file was generated by PARSER (from files_GN.cpp)

@<TRIPOS>ATOM
      1 O6         -1.9948   23.6667    1.2470 O.2         1 GYN      -0.3700
      2 C5         -0.6955   23.9984    1.3911 C.2         1 GYN       0.2385
      3 O1         -0.1849   25.1232    0.8538 O.3         1 GYN      -0.2655
      4 C2          1.2071   25.2805    1.0950 C.3         1 GYN       0.1059
      5 C3          1.5315   24.1009    2.0750 C.3         1 GYN       0.0041
      6 C4          0.2752   23.2038    2.1438 C.3         1 GYN       0.0613
      7 C7          0.4735   21.7879    1.5544 C.3         1 GYN      -0.0438
      8 C8          1.8377   25.4523   -0.2487 C.2         1 GYN      -0.0559
      9 C13         1.7138   26.6123   -0.9734 C.2         1 GYN      -0.0876
     10 C14         1.2434   27.8355   -0.2868 C.3         1 GYN      -0.0498
     11 C12         2.2308   26.7614   -2.3792 C.3         1 GYN      -0.0250
     12 C27         2.5592   25.3979   -3.1529 C.3         1 GYN       0.0148
     13 C10         3.2947   24.4925   -2.1151 C.3         1 GYN      -0.0494
     14 C9          2.4681   24.2642   -0.8373 C.3         1 GYN      -0.0395
     15 C15         1.3699   27.6533   -3.1927 C.2         1 GYN      -0.1023
     16 C16         1.6079   28.9081   -3.6488 C.2         1 GYN      -0.0548
     17 C19         2.8914   29.5798   -3.4307 C.3         1 GYN      -0.0377
     18 C17         0.4990   29.6976   -4.2311 C.3         1 GYN       0.0804
     19 O20         0.2632   30.8011   -3.3552 O.3         1 GYN      -0.3807
     20 C18         0.7102   30.2234   -5.6893 C.3         1 GYN      -0.0158
     21 C21         0.3516   29.2219   -6.8246 C.3         1 GYN      -0.0223
     22 C43         1.4336   28.1542   -7.1348 C.3         1 GYN       0.0623
     23 C47         0.9742   27.0820   -8.1489 C.3         1 GYN      -0.0197
     24 C48         2.1323   26.9853   -9.1670 C.3         1 GYN      -0.0066
     25 C49         1.7405   27.5315  -10.5691 C.3         1 GYN      -0.0582
     26 O43         2.5861   28.7828   -7.7184 O.3         1 GYN      -0.3622
     27 C37         3.2870   27.8038   -8.5070 C.3         1 GYN       0.0865
     28 C36         4.3044   27.0023   -7.7894 C.2         1 GYN      -0.0553
     29 C38         5.0430   25.9913   -8.5482 C.3         1 GYN      -0.0379
     30 C35         4.6239   27.2647   -6.4997 C.2         1 GYN      -0.1039
     31 C34         5.5013   26.5008   -5.6187 C.3         1 GYN      -0.0315
     32 C33         4.8233   26.1480   -4.2615 C.3         1 GYN       0.0100
     33 C32         3.5066   25.4897   -4.3128 C.2         1 GYN       0.0383
     34 N31         3.4095   24.6523   -5.2896 N.2         1 GYN      -0.2722
     35 C30         2.4547   23.6893   -5.5880 C.3         1 GYN       0.0432
     36 C46         1.4550   23.4053   -4.4460 C.3         1 GYN      -0.0375
     37 C28         1.2194   24.7083   -3.6512 C.3         1 GYN      -0.0530
     38 H1          1.3419   26.1796    1.6965 H           1 GYN       0.0753
     39 H2          1.7382   24.5072    3.0703 H           1 GYN       0.0338
     40 H3          2.4175   23.5269    1.8173 H           1 GYN       0.0338
     41 H4         -0.0657   23.1219    3.1799 H           1 GYN       0.0553
     42 H5         -0.4112   21.1814    1.7351 H           1 GYN       0.0258
     43 H6          1.3175   21.2926    2.0293 H           1 GYN       0.0258
     44 H7          0.6605   21.8233    0.4778 H           1 GYN       0.0258
     45 H8          1.2411   28.7316   -0.9001 H           1 GYN       0.0329
     46 H9          1.8960   28.0646    0.5568 H           1 GYN       0.0329
     47 H10         0.2211   27.7019    0.0732 H           1 GYN       0.0329
     48 H11         3.1819   27.2600   -2.2030 H           1 GYN       0.0417
     49 H12         4.2298   24.9743   -1.8028 H           1 GYN       0.0226
     50 H13         3.5706   23.5206   -2.5356 H           1 GYN       0.0226
     51 H14         1.7009   23.5089   -1.0366 H           1 GYN       0.0362
     52 H15         3.1916   23.8330   -0.1497 H           1 GYN       0.0362
     53 H16         0.4398   27.3232   -3.2965 H           1 GYN       0.0252
     54 H17         3.1417   29.5947   -2.3693 H           1 GYN       0.0377
     55 H18         2.8870   30.6170   -3.7652 H           1 GYN       0.0377
     56 H19         3.6802   29.0721   -3.9764 H           1 GYN       0.0377
     57 H20        -0.4431   29.1401   -4.2273 H           1 GYN       0.0742
     58 H21        -0.5421   31.2467   -3.6946 H           1 GYN       0.2129
     59 H22         1.7289   30.5911   -5.8328 H           1 GYN       0.0312
     60 H23         0.0501   31.0867   -5.8256 H           1 GYN       0.0312
     61 H24         0.1789   29.7954   -7.7417 H           1 GYN       0.0293
     62 H25        -0.5897   28.7237   -6.5769 H           1 GYN       0.0293
     63 H26         1.7244   27.6594   -6.2041 H           1 GYN       0.0598
     64 H27         0.0304   27.3500   -8.6329 H           1 GYN       0.0295
     65 H28         0.8262   26.1258   -7.6391 H           1 GYN       0.0295
     66 H29         2.4011   25.9322   -9.2946 H           1 GYN       0.0345
     67 H30         2.5927   27.4702  -11.2477 H           1 GYN       0.0235
     68 H31         1.4213   28.5733  -10.5043 H           1 GYN       0.0235
     69 H32         0.9250   26.9404  -10.9904 H           1 GYN       0.0235
     70 H33         3.8364   28.3669   -9.2677 H           1 GYN       0.0747
     71 H34         6.1177   26.1713   -8.4716 H           1 GYN       0.0376
     72 H35         4.7948   26.0011   -9.6119 H           1 GYN       0.0376
     73 H36         4.8154   24.9957   -8.1622 H           1 GYN       0.0376
     74 H37         4.2230   28.0661   -6.0795 H           1 GYN       0.0245
     75 H38         6.3884   27.0998   -5.4066 H           1 GYN       0.0369
     76 H39         5.8531   25.5740   -6.0778 H           1 GYN       0.0369
     77 H40         4.7718   27.0676   -3.6873 H           1 GYN       0.0520
     78 H41         5.5113   25.4884   -3.7248 H           1 GYN       0.0520
     79 H42         2.9680   22.7634   -5.8493 H           1 GYN       0.0507
     80 H43         1.9157   24.0516   -6.4627 H           1 GYN       0.0507
     81 H44         1.8380   22.6252   -3.7862 H           1 GYN       0.0277
     82 H45         0.5117   23.0470   -4.8660 H           1 GYN       0.0277
     83 H46         0.6923   25.3707   -4.3418 H           1 GYN       0.0210
     84 H47         0.5393   24.5087   -2.8231 H           1 GYN       0.0210
@<TRIPOS>BOND
     1     1     2   2
     2     2     3   1
     3     2     6   1
     4     3     4   1
     5     4     5   1
     6     4     8   1
     7     5     6   1
     8     6     7   1
     9     8     9   2
    10     8    14   1
    11     9    10   1
    12     9    11   1
    13    11    12   1
    14    11    15   1
    15    12    13   1
    16    12    33   1
    17    12    37   1
    18    13    14   1
    19    15    16   2
    20    16    17   1
    21    16    18   1
    22    18    19   1
    23    18    20   1
    24    20    21   1
    25    21    22   1
    26    22    23   1
    27    22    26   1
    28    23    24   1
    29    24    25   1
    30    24    27   1
    31    26    27   1
    32    27    28   1
    33    28    29   1
    34    28    30   2
    35    30    31   1
    36    31    32   1
    37    32    33   1
    38    33    34   2
    39    34    35   1
    40    35    36   1
    41    36    37   1
    42     4    38   1
    43     5    39   1
    44     5    40   1
    45     6    41   1
    46     7    42   1
    47     7    43   1
    48     7    44   1
    49    10    45   1
    50    10    46   1
    51    10    47   1
    52    11    48   1
    53    13    49   1
    54    13    50   1
    55    14    51   1
    56    14    52   1
    57    15    53   1
    58    17    54   1
    59    17    55   1
    60    17    56   1
    61    18    57   1
    62    19    58   1
    63    20    59   1
    64    20    60   1
    65    21    61   1
    66    21    62   1
    67    22    63   1
    68    23    64   1
    69    23    65   1
    70    24    66   1
    71    25    67   1
    72    25    68   1
    73    25    69   1
    74    27    70   1
    75    29    71   1
    76    29    72   1
    77    29    73   1
    78    30    74   1
    79    31    75   1
    80    31    76   1
    81    32    77   1
    82    32    78   1
    83    35    79   1
    84    35    80   1
    85    36    81   1
    86    36    82   1
    87    37    83   1
    88    37    84   1
@<TRIPOS>SUBSTRUCTURE
     1  GYN      2

