@<TRIPOS>MOLECULE
2x00_ligand_012
    84    88
SMALL
GAST_HUCK
****
This file was generated by PARSER (from files_GN.cpp)

@<TRIPOS>ATOM
      1 O6          7.1285   21.5095  -10.5079 O.2         1 GYN      -0.3700
      2 C5          7.2582   22.4567  -11.4597 C.2         1 GYN       0.2385
      3 O1          6.8391   22.2623  -12.7257 O.3         1 GYN      -0.2655
      4 C2          6.9790   23.4237  -13.5328 C.3         1 GYN       0.1059
      5 C3          7.7057   24.4561  -12.6134 C.3         1 GYN       0.0041
      6 C4          7.7039   23.8314  -11.1930 C.3         1 GYN       0.0613
      7 C7          9.0598   23.8913  -10.4455 C.3         1 GYN      -0.0438
      8 C8          7.6072   23.1758  -14.8557 C.2         1 GYN      -0.0559
      9 C13         8.8614   22.6735  -15.0359 C.2         1 GYN      -0.0876
     10 C14         9.4397   21.7875  -14.0146 C.3         1 GYN      -0.0498
     11 C12         9.6429   22.8777  -16.3029 C.3         1 GYN      -0.0250
     12 C27         8.9129   23.7884  -17.4041 C.3         1 GYN       0.0148
     13 C10         7.4130   23.3236  -17.3915 C.3         1 GYN      -0.0494
     14 C9          6.7621   23.5242  -16.0040 C.3         1 GYN      -0.0395
     15 C15        11.0040   23.3556  -15.9475 C.2         1 GYN      -0.1023
     16 C16        12.2063   22.7207  -16.0040 C.2         1 GYN      -0.0548
     17 C19        12.3382   21.3709  -16.5606 C.3         1 GYN      -0.0377
     18 C17        13.3764   23.3096  -15.3052 C.3         1 GYN       0.0804
     19 O20        13.7228   22.4415  -14.2205 O.3         1 GYN      -0.3807
     20 C18        14.6812   23.5707  -16.1227 C.3         1 GYN      -0.0158
     21 C21        14.6931   24.7819  -17.1020 C.3         1 GYN      -0.0223
     22 C43        13.8973   24.5706  -18.4139 C.3         1 GYN       0.0623
     23 C47        14.0449   25.6942  -19.4693 C.3         1 GYN      -0.0197
     24 C48        14.5711   24.9803  -20.7374 C.3         1 GYN      -0.0066
     25 C49        16.0919   25.2009  -20.9553 C.3         1 GYN      -0.0582
     26 O43        14.3318   23.3554  -19.0544 O.3         1 GYN      -0.3622
     27 C37        14.2147   23.4859  -20.4820 C.3         1 GYN       0.0865
     28 C36        12.9332   23.0437  -21.0747 C.2         1 GYN      -0.0553
     29 C38        12.8393   22.9369  -22.5307 C.3         1 GYN      -0.0379
     30 C35        11.8806   22.7160  -20.2950 C.2         1 GYN      -0.1039
     31 C34        10.5428   22.3165  -20.7077 C.3         1 GYN      -0.0315
     32 C33         9.5083   22.3454  -19.5352 C.3         1 GYN       0.0100
     33 C32         9.3655   23.6312  -18.8288 C.2         1 GYN       0.0383
     34 N31         9.3084   24.6402  -19.6399 N.2         1 GYN      -0.2722
     35 C30         8.9872   25.9806  -19.4433 C.3         1 GYN       0.0432
     36 C46         8.3866   26.2764  -18.0504 C.3         1 GYN      -0.0375
     37 C28         9.0346   25.3272  -17.0165 C.3         1 GYN      -0.0530
     38 H1          5.9510   23.7843  -13.6559 H           1 GYN       0.0753
     39 H2          7.1670   25.4103  -12.6026 H           1 GYN       0.0338
     40 H3          8.7237   24.6616  -12.9656 H           1 GYN       0.0338
     41 H4          6.9450   24.3085  -10.5734 H           1 GYN       0.0553
     42 H5          8.9748   23.4044   -9.4708 H           1 GYN       0.0258
     43 H6          9.3550   24.9313  -10.2850 H           1 GYN       0.0258
     44 H7          9.8452   23.3889  -11.0143 H           1 GYN       0.0258
     45 H8          8.7528   20.9733  -13.7663 H           1 GYN       0.0329
     46 H9          9.6810   22.3491  -13.1152 H           1 GYN       0.0329
     47 H10        10.3607   21.3070  -14.3324 H           1 GYN       0.0329
     48 H11         9.7197   21.8735  -16.7124 H           1 GYN       0.0417
     49 H12         7.3551   22.2571  -17.6303 H           1 GYN       0.0226
     50 H13         6.8105   23.8501  -18.1365 H           1 GYN       0.0226
     51 H14         6.4467   24.5714  -15.9188 H           1 GYN       0.0362
     52 H15         5.8514   22.9139  -15.9757 H           1 GYN       0.0362
     53 H16        11.0028   24.2273  -15.4687 H           1 GYN       0.0252
     54 H17        11.7443   20.6568  -15.9933 H           1 GYN       0.0377
     55 H18        13.3650   21.0061  -16.5392 H           1 GYN       0.0377
     56 H19        12.0033   21.3409  -17.5927 H           1 GYN       0.0377
     57 H20        13.1268   24.2621  -14.8313 H           1 GYN       0.0742
     58 H21        12.9056   22.3607  -13.6735 H           1 GYN       0.2129
     59 H22        14.9802   22.6697  -16.6616 H           1 GYN       0.0312
     60 H23        15.4790   23.7655  -15.3958 H           1 GYN       0.0312
     61 H24        15.7363   24.9810  -17.3704 H           1 GYN       0.0293
     62 H25        14.3143   25.6663  -16.5860 H           1 GYN       0.0293
     63 H26        12.8430   24.4908  -18.1420 H           1 GYN       0.0598
     64 H27        14.7130   26.4935  -19.1369 H           1 GYN       0.0295
     65 H28        13.0680   26.1386  -19.6755 H           1 GYN       0.0295
     66 H29        14.0537   25.3705  -21.6206 H           1 GYN       0.0345
     67 H30        16.4252   24.6660  -21.8475 H           1 GYN       0.0235
     68 H31        16.6657   24.8427  -20.0975 H           1 GYN       0.0235
     69 H32        16.3023   26.2635  -21.0984 H           1 GYN       0.0235
     70 H33        14.9874   22.8326  -20.8948 H           1 GYN       0.0747
     71 H34        12.5658   21.9188  -22.8152 H           1 GYN       0.0376
     72 H35        13.7846   23.1728  -23.0243 H           1 GYN       0.0376
     73 H36        12.0859   23.6283  -22.9113 H           1 GYN       0.0376
     74 H37        12.0080   22.7691  -19.3227 H           1 GYN       0.0245
     75 H38        10.5896   21.3041  -21.1174 H           1 GYN       0.0369
     76 H39        10.1851   22.9789  -21.5010 H           1 GYN       0.0369
     77 H40         9.7816   21.5456  -18.8527 H           1 GYN       0.0520
     78 H41         8.5347   22.0792  -19.9514 H           1 GYN       0.0520
     79 H42         8.2747   26.2804  -20.2143 H           1 GYN       0.0507
     80 H43         9.9011   26.5624  -19.5829 H           1 GYN       0.0507
     81 H44         7.3034   26.1345  -18.0667 H           1 GYN       0.0277
     82 H45         8.5777   27.3179  -17.7763 H           1 GYN       0.0277
     83 H46        10.0870   25.6191  -16.9832 H           1 GYN       0.0210
     84 H47         8.6216   25.5370  -16.0294 H           1 GYN       0.0210
@<TRIPOS>BOND
     1     1     2   2
     2     2     3   1
     3     2     6   1
     4     3     4   1
     5     4     5   1
     6     4     8   1
     7     5     6   1
     8     6     7   1
     9     8     9   2
    10     8    14   1
    11     9    10   1
    12     9    11   1
    13    11    12   1
    14    11    15   1
    15    12    13   1
    16    12    33   1
    17    12    37   1
    18    13    14   1
    19    15    16   2
    20    16    17   1
    21    16    18   1
    22    18    19   1
    23    18    20   1
    24    20    21   1
    25    21    22   1
    26    22    23   1
    27    22    26   1
    28    23    24   1
    29    24    25   1
    30    24    27   1
    31    26    27   1
    32    27    28   1
    33    28    29   1
    34    28    30   2
    35    30    31   1
    36    31    32   1
    37    32    33   1
    38    33    34   2
    39    34    35   1
    40    35    36   1
    41    36    37   1
    42     4    38   1
    43     5    39   1
    44     5    40   1
    45     6    41   1
    46     7    42   1
    47     7    43   1
    48     7    44   1
    49    10    45   1
    50    10    46   1
    51    10    47   1
    52    11    48   1
    53    13    49   1
    54    13    50   1
    55    14    51   1
    56    14    52   1
    57    15    53   1
    58    17    54   1
    59    17    55   1
    60    17    56   1
    61    18    57   1
    62    19    58   1
    63    20    59   1
    64    20    60   1
    65    21    61   1
    66    21    62   1
    67    22    63   1
    68    23    64   1
    69    23    65   1
    70    24    66   1
    71    25    67   1
    72    25    68   1
    73    25    69   1
    74    27    70   1
    75    29    71   1
    76    29    72   1
    77    29    73   1
    78    30    74   1
    79    31    75   1
    80    31    76   1
    81    32    77   1
    82    32    78   1
    83    35    79   1
    84    35    80   1
    85    36    81   1
    86    36    82   1
    87    37    83   1
    88    37    84   1
@<TRIPOS>SUBSTRUCTURE
     1  GYN      2

