@<TRIPOS>MOLECULE
2x00_ligand_034
    84    88
SMALL
GAST_HUCK
****
This file was generated by PARSER (from files_GN.cpp)

@<TRIPOS>ATOM
      1 O6         10.1556   36.2470  -11.4197 O.2         1 GYN      -0.3700
      2 C5          9.1374   35.3883  -11.1899 C.2         1 GYN       0.2385
      3 O1          9.3426   34.1052  -10.8393 O.3         1 GYN      -0.2655
      4 C2          8.1375   33.3756  -10.5976 C.3         1 GYN       0.1059
      5 C3          7.0187   34.4282  -10.8598 C.3         1 GYN       0.0041
      6 C4          7.7251   35.7636  -11.2157 C.3         1 GYN       0.0613
      7 C7          7.2938   36.3646  -12.5773 C.3         1 GYN      -0.0438
      8 C8          8.0071   32.1282  -11.3948 C.2         1 GYN      -0.0559
      9 C13         7.2283   31.0707  -11.0109 C.2         1 GYN      -0.0876
     10 C14         6.2365   31.2682   -9.9348 C.3         1 GYN      -0.0498
     11 C12         7.2449   29.7509  -11.7284 C.3         1 GYN      -0.0250
     12 C27         8.4469   29.5624  -12.7673 C.3         1 GYN       0.0148
     13 C10         8.4871   30.8997  -13.5862 C.3         1 GYN      -0.0494
     14 C9          8.7336   32.1229  -12.6727 C.3         1 GYN      -0.0395
     15 C15         7.1463   28.6207  -10.7735 C.2         1 GYN      -0.1023
     16 C16         6.0902   27.8020  -10.5153 C.2         1 GYN      -0.0548
     17 C19         4.8538   27.8870  -11.3018 C.3         1 GYN      -0.0377
     18 C17         6.0762   26.9967   -9.2685 C.3         1 GYN       0.0804
     19 O20         5.1576   27.6362   -8.3743 O.3         1 GYN      -0.3807
     20 C18         5.7170   25.4750   -9.3379 C.3         1 GYN      -0.0158
     21 C21         6.8441   24.4821   -9.7384 C.3         1 GYN      -0.0223
     22 C43         7.2356   24.4974  -11.2372 C.3         1 GYN       0.0623
     23 C47         8.2299   23.3890  -11.6249 C.3         1 GYN      -0.0197
     24 C48         8.0478   23.3083  -13.1502 C.3         1 GYN      -0.0066
     25 C49         8.4216   21.9255  -13.7420 C.3         1 GYN      -0.0582
     26 O43         6.1018   24.2679  -12.0906 O.3         1 GYN      -0.3622
     27 C37         6.5600   23.7316  -13.3518 C.3         1 GYN       0.0865
     28 C36         6.3839   24.6508  -14.4954 C.2         1 GYN      -0.0553
     29 C38         6.1845   24.1014  -15.8359 C.3         1 GYN      -0.0379
     30 C35         6.5547   25.9768  -14.3051 C.2         1 GYN      -0.1039
     31 C34         6.7486   27.0034  -15.3205 C.3         1 GYN      -0.0315
     32 C33         7.1435   28.4005  -14.7349 C.3         1 GYN       0.0100
     33 C32         8.2455   28.4454  -13.7504 C.2         1 GYN       0.0383
     34 N31         9.1164   27.5002  -13.8801 N.2         1 GYN      -0.2722
     35 C30        10.2612   27.1942  -13.1558 C.3         1 GYN       0.0432
     36 C46        10.3162   27.9448  -11.8113 C.3         1 GYN      -0.0375
     37 C28         9.8526   29.4036  -12.0322 C.3         1 GYN      -0.0530
     38 H1          8.1850   33.1343   -9.5321 H           1 GYN       0.0753
     39 H2          6.4098   34.5591   -9.9605 H           1 GYN       0.0338
     40 H3          6.3533   34.1091  -11.6681 H           1 GYN       0.0338
     41 H4          7.5500   36.5038  -10.4291 H           1 GYN       0.0553
     42 H5          7.8329   37.2945  -12.7700 H           1 GYN       0.0258
     43 H6          6.2248   36.5861  -12.5598 H           1 GYN       0.0258
     44 H7          7.4938   35.6669  -13.3938 H           1 GYN       0.0258
     45 H8          5.6207   32.1456  -10.1313 H           1 GYN       0.0329
     46 H9          6.7441   31.3914   -8.9773 H           1 GYN       0.0329
     47 H10         5.5380   30.4434   -9.8223 H           1 GYN       0.0329
     48 H11         6.3291   29.7918  -12.3136 H           1 GYN       0.0417
     49 H12         7.5345   31.0627  -14.1007 H           1 GYN       0.0226
     50 H13         9.2658   30.8655  -14.3562 H           1 GYN       0.0226
     51 H14         9.8051   32.1862  -12.4656 H           1 GYN       0.0362
     52 H15         8.4629   33.0156  -13.2446 H           1 GYN       0.0362
     53 H16         7.9078   28.5704  -10.1381 H           1 GYN       0.0252
     54 H17         4.4369   28.8932  -11.2558 H           1 GYN       0.0377
     55 H18         4.0735   27.2170  -10.9455 H           1 GYN       0.0377
     56 H19         5.0435   27.6391  -12.3434 H           1 GYN       0.0377
     57 H20         7.0394   27.0527   -8.7537 H           1 GYN       0.0742
     58 H21         4.2611   27.4621   -8.7277 H           1 GYN       0.2129
     59 H22         4.8536   25.3081   -9.9800 H           1 GYN       0.0312
     60 H23         5.4071   25.1750   -8.3319 H           1 GYN       0.0312
     61 H24         6.4970   23.4741   -9.4897 H           1 GYN       0.0293
     62 H25         7.7340   24.6777   -9.1330 H           1 GYN       0.0293
     63 H26         7.6807   25.4710  -11.4629 H           1 GYN       0.0598
     64 H27         7.9544   22.4412  -11.1516 H           1 GYN       0.0295
     65 H28         9.2551   23.6491  -11.3461 H           1 GYN       0.0295
     66 H29         8.7167   24.0515  -13.6008 H           1 GYN       0.0345
     67 H30         8.2920   21.9355  -14.8253 H           1 GYN       0.0235
     68 H31         7.7936   21.1382  -13.3207 H           1 GYN       0.0235
     69 H32         9.4654   21.6947  -13.5202 H           1 GYN       0.0235
     70 H33         5.9373   22.8449  -13.5047 H           1 GYN       0.0747
     71 H34         5.2972   24.5445  -16.2921 H           1 GYN       0.0376
     72 H35         6.0427   23.0190  -15.8275 H           1 GYN       0.0376
     73 H36         7.0502   24.3150  -16.4656 H           1 GYN       0.0376
     74 H37         6.6464   26.2873  -13.3728 H           1 GYN       0.0245
     75 H38         5.8303   27.1065  -15.9045 H           1 GYN       0.0369
     76 H39         7.5458   26.6861  -15.9979 H           1 GYN       0.0369
     77 H40         6.2369   28.8234  -14.3050 H           1 GYN       0.0520
     78 H41         7.4210   29.0422  -15.5749 H           1 GYN       0.0520
     79 H42        11.1333   27.4438  -13.7651 H           1 GYN       0.0507
     80 H43        10.2729   26.1197  -12.9668 H           1 GYN       0.0507
     81 H44        11.3362   27.9333  -11.4186 H           1 GYN       0.0277
     82 H45         9.6757   27.4380  -11.0892 H           1 GYN       0.0277
     83 H46         9.8542   29.9116  -11.0665 H           1 GYN       0.0210
     84 H47        10.6430   29.8730  -12.6273 H           1 GYN       0.0210
@<TRIPOS>BOND
     1     1     2   2
     2     2     3   1
     3     2     6   1
     4     3     4   1
     5     4     5   1
     6     4     8   1
     7     5     6   1
     8     6     7   1
     9     8     9   2
    10     8    14   1
    11     9    10   1
    12     9    11   1
    13    11    12   1
    14    11    15   1
    15    12    13   1
    16    12    33   1
    17    12    37   1
    18    13    14   1
    19    15    16   2
    20    16    17   1
    21    16    18   1
    22    18    19   1
    23    18    20   1
    24    20    21   1
    25    21    22   1
    26    22    23   1
    27    22    26   1
    28    23    24   1
    29    24    25   1
    30    24    27   1
    31    26    27   1
    32    27    28   1
    33    28    29   1
    34    28    30   2
    35    30    31   1
    36    31    32   1
    37    32    33   1
    38    33    34   2
    39    34    35   1
    40    35    36   1
    41    36    37   1
    42     4    38   1
    43     5    39   1
    44     5    40   1
    45     6    41   1
    46     7    42   1
    47     7    43   1
    48     7    44   1
    49    10    45   1
    50    10    46   1
    51    10    47   1
    52    11    48   1
    53    13    49   1
    54    13    50   1
    55    14    51   1
    56    14    52   1
    57    15    53   1
    58    17    54   1
    59    17    55   1
    60    17    56   1
    61    18    57   1
    62    19    58   1
    63    20    59   1
    64    20    60   1
    65    21    61   1
    66    21    62   1
    67    22    63   1
    68    23    64   1
    69    23    65   1
    70    24    66   1
    71    25    67   1
    72    25    68   1
    73    25    69   1
    74    27    70   1
    75    29    71   1
    76    29    72   1
    77    29    73   1
    78    30    74   1
    79    31    75   1
    80    31    76   1
    81    32    77   1
    82    32    78   1
    83    35    79   1
    84    35    80   1
    85    36    81   1
    86    36    82   1
    87    37    83   1
    88    37    84   1
@<TRIPOS>SUBSTRUCTURE
     1  GYN      2

