@<TRIPOS>MOLECULE
2x00_ligand_083
    84    88
SMALL
GAST_HUCK
****
This file was generated by PARSER (from files_GN.cpp)

@<TRIPOS>ATOM
      1 O6         -2.1812   38.5625   -7.0244 O.2         1 GYN      -0.3700
      2 C5         -2.3484   37.6559   -8.0137 C.2         1 GYN       0.2385
      3 O1         -3.1310   36.5727   -7.8826 O.3         1 GYN      -0.2655
      4 C2         -3.2062   35.7151   -9.0238 C.3         1 GYN       0.1059
      5 C3         -2.3277   36.5143  -10.0486 C.3         1 GYN       0.0041
      6 C4         -1.7471   37.7635   -9.3324 C.3         1 GYN       0.0613
      7 C7         -0.1972   37.7939   -9.2627 C.3         1 GYN      -0.0438
      8 C8         -2.9039   34.2767   -8.7645 C.2         1 GYN      -0.0559
      9 C13        -3.0499   33.6598   -7.5479 C.2         1 GYN      -0.0876
     10 C14        -3.8385   34.3044   -6.4791 C.3         1 GYN      -0.0498
     11 C12        -2.6108   32.2458   -7.3017 C.3         1 GYN      -0.0250
     12 C27        -1.7206   31.6067   -8.4630 C.3         1 GYN       0.0148
     13 C10        -2.5113   31.9344   -9.7781 C.3         1 GYN      -0.0494
     14 C9         -2.6577   33.4614   -9.9725 C.3         1 GYN      -0.0395
     15 C15        -1.9789   32.1195   -5.9693 C.2         1 GYN      -0.1023
     16 C16        -2.4638   31.5331   -4.8402 C.2         1 GYN      -0.0548
     17 C19        -3.7279   30.7880   -4.8462 C.3         1 GYN      -0.0377
     18 C17        -1.8405   31.8479   -3.5329 C.3         1 GYN       0.0804
     19 O20        -2.7235   32.7509   -2.8591 O.3         1 GYN      -0.3807
     20 C18        -1.4773   30.6791   -2.5553 C.3         1 GYN      -0.0158
     21 C21        -0.1262   29.9496   -2.7966 C.3         1 GYN      -0.0223
     22 C43        -0.0986   28.9828   -4.0031 C.3         1 GYN       0.0623
     23 C47         1.1977   28.1596   -4.1071 C.3         1 GYN      -0.0197
     24 C48         0.7669   26.9929   -5.0115 C.3         1 GYN      -0.0066
     25 C49         1.6035   25.7039   -4.8098 C.3         1 GYN      -0.0582
     26 O43        -1.1388   27.9968   -3.9127 O.3         1 GYN      -0.3622
     27 C37        -0.7495   26.8407   -4.6839 C.3         1 GYN       0.0865
     28 C36        -1.5676   26.6236   -5.8911 C.2         1 GYN      -0.0553
     29 C38        -1.7613   25.2639   -6.3864 C.3         1 GYN      -0.0379
     30 C35        -2.0077   27.6956   -6.5855 C.2         1 GYN      -0.1039
     31 C34        -2.5239   27.7292   -7.9457 C.3         1 GYN      -0.0315
     32 C33        -2.7275   29.1828   -8.4870 C.3         1 GYN       0.0100
     33 C32        -1.5837   30.1146   -8.3836 C.2         1 GYN       0.0383
     34 N31        -0.4231   29.5467   -8.3280 N.2         1 GYN      -0.2722
     35 C30         0.8580   30.0741   -8.2421 C.3         1 GYN       0.0432
     36 C46         0.8460   31.5457   -7.7871 C.3         1 GYN      -0.0375
     37 C28        -0.2806   32.2907   -8.5452 C.3         1 GYN      -0.0530
     38 H1         -4.2444   35.7500   -9.3624 H           1 GYN       0.0753
     39 H2         -2.9463   36.8274  -10.8946 H           1 GYN       0.0338
     40 H3         -1.5032   35.9330  -10.4556 H           1 GYN       0.0338
     41 H4         -2.1068   38.6794   -9.8074 H           1 GYN       0.0553
     42 H5          0.1456   38.6736   -8.7119 H           1 GYN       0.0258
     43 H6          0.2186   37.8415  -10.2725 H           1 GYN       0.0258
     44 H7          0.1893   36.8989   -8.7703 H           1 GYN       0.0258
     45 H8         -4.7294   34.7894   -6.8808 H           1 GYN       0.0329
     46 H9         -3.2250   35.0317   -5.9475 H           1 GYN       0.0329
     47 H10        -4.2045   33.6055   -5.7300 H           1 GYN       0.0329
     48 H11        -3.5531   31.7020   -7.2925 H           1 GYN       0.0417
     49 H12        -3.5184   31.5060   -9.7449 H           1 GYN       0.0226
     50 H13        -2.0101   31.4983  -10.6499 H           1 GYN       0.0226
     51 H14        -1.7284   33.7729  -10.4479 H           1 GYN       0.0362
     52 H15        -3.4598   33.6300  -10.6965 H           1 GYN       0.0362
     53 H16        -1.1596   32.6690   -5.8644 H           1 GYN       0.0252
     54 H17        -4.5553   31.4194   -5.1673 H           1 GYN       0.0377
     55 H18        -4.0050   30.4004   -3.8669 H           1 GYN       0.0377
     56 H19        -3.6642   29.9411   -5.5236 H           1 GYN       0.0377
     57 H20        -0.9219   32.4246   -3.6690 H           1 GYN       0.0742
     58 H21        -3.5198   32.2277   -2.6239 H           1 GYN       0.2129
     59 H22        -2.2775   29.9410   -2.5027 H           1 GYN       0.0312
     60 H23        -1.4057   31.1118   -1.5529 H           1 GYN       0.0312
     61 H24         0.1054   29.3775   -1.8941 H           1 GYN       0.0293
     62 H25         0.6653   30.6890   -2.9282 H           1 GYN       0.0293
     63 H26        -0.2188   29.5745   -4.9157 H           1 GYN       0.0598
     64 H27         1.5021   27.7938   -3.1217 H           1 GYN       0.0295
     65 H28         2.0142   28.7401   -4.5462 H           1 GYN       0.0295
     66 H29         0.9009   27.3151   -6.0513 H           1 GYN       0.0345
     67 H30         1.2616   24.9264   -5.4952 H           1 GYN       0.0235
     68 H31         1.5091   25.3350   -3.7864 H           1 GYN       0.0235
     69 H32         2.6565   25.9064   -5.0137 H           1 GYN       0.0235
     70 H33        -0.8964   26.0044   -3.9971 H           1 GYN       0.0747
     71 H34        -2.8222   25.0785   -6.5674 H           1 GYN       0.0376
     72 H35        -1.4124   24.5070   -5.6813 H           1 GYN       0.0376
     73 H36        -1.2070   25.1237   -7.3139 H           1 GYN       0.0376
     74 H37        -1.8894   28.5785   -6.1623 H           1 GYN       0.0245
     75 H38        -3.4752   27.1935   -7.9863 H           1 GYN       0.0369
     76 H39        -1.8178   27.2230   -8.6077 H           1 GYN       0.0369
     77 H40        -3.5920   29.5900   -7.9663 H           1 GYN       0.0520
     78 H41        -3.0101   29.1052   -9.5387 H           1 GYN       0.0520
     79 H42         1.3332   29.9847   -9.2220 H           1 GYN       0.0507
     80 H43         1.4335   29.4806   -7.5295 H           1 GYN       0.0507
     81 H44         1.8168   32.0062   -7.9958 H           1 GYN       0.0277
     82 H45         0.6860   31.5859   -6.7093 H           1 GYN       0.0277
     83 H46        -0.3039   33.3204   -8.1803 H           1 GYN       0.0210
     84 H47         0.0488   32.3402   -9.5882 H           1 GYN       0.0210
@<TRIPOS>BOND
     1     1     2   2
     2     2     3   1
     3     2     6   1
     4     3     4   1
     5     4     5   1
     6     4     8   1
     7     5     6   1
     8     6     7   1
     9     8     9   2
    10     8    14   1
    11     9    10   1
    12     9    11   1
    13    11    12   1
    14    11    15   1
    15    12    13   1
    16    12    33   1
    17    12    37   1
    18    13    14   1
    19    15    16   2
    20    16    17   1
    21    16    18   1
    22    18    19   1
    23    18    20   1
    24    20    21   1
    25    21    22   1
    26    22    23   1
    27    22    26   1
    28    23    24   1
    29    24    25   1
    30    24    27   1
    31    26    27   1
    32    27    28   1
    33    28    29   1
    34    28    30   2
    35    30    31   1
    36    31    32   1
    37    32    33   1
    38    33    34   2
    39    34    35   1
    40    35    36   1
    41    36    37   1
    42     4    38   1
    43     5    39   1
    44     5    40   1
    45     6    41   1
    46     7    42   1
    47     7    43   1
    48     7    44   1
    49    10    45   1
    50    10    46   1
    51    10    47   1
    52    11    48   1
    53    13    49   1
    54    13    50   1
    55    14    51   1
    56    14    52   1
    57    15    53   1
    58    17    54   1
    59    17    55   1
    60    17    56   1
    61    18    57   1
    62    19    58   1
    63    20    59   1
    64    20    60   1
    65    21    61   1
    66    21    62   1
    67    22    63   1
    68    23    64   1
    69    23    65   1
    70    24    66   1
    71    25    67   1
    72    25    68   1
    73    25    69   1
    74    27    70   1
    75    29    71   1
    76    29    72   1
    77    29    73   1
    78    30    74   1
    79    31    75   1
    80    31    76   1
    81    32    77   1
    82    32    78   1
    83    35    79   1
    84    35    80   1
    85    36    81   1
    86    36    82   1
    87    37    83   1
    88    37    84   1
@<TRIPOS>SUBSTRUCTURE
     1  GYN      2

