@<TRIPOS>MOLECULE
2x00_ligand_018
    84    88
SMALL
GAST_HUCK
****
This file was generated by PARSER (from files_GN.cpp)

@<TRIPOS>ATOM
      1 O6         -4.8759   31.0983    2.5090 O.2         1 GYN      -0.3700
      2 C5         -3.7259   30.5956    3.0133 C.2         1 GYN       0.2385
      3 O1         -2.5300   30.7671    2.4142 O.3         1 GYN      -0.2655
      4 C2         -1.4219   30.2587    3.1626 C.3         1 GYN       0.1059
      5 C3         -2.1544   29.4527    4.2850 C.3         1 GYN       0.0041
      6 C4         -3.6149   29.9767    4.3325 C.3         1 GYN       0.0613
      7 C7         -4.6900   28.8847    4.5940 C.3         1 GYN      -0.0438
      8 C8         -0.3544   29.5110    2.4417 C.2         1 GYN      -0.0559
      9 C13        -0.1886   29.4390    1.0827 C.2         1 GYN      -0.0876
     10 C14        -0.7952   30.4736    0.2235 C.3         1 GYN      -0.0498
     11 C12         0.7533   28.4646    0.4312 C.3         1 GYN      -0.0250
     12 C27         1.2972   27.3226    1.4061 C.3         1 GYN       0.0148
     13 C10         1.7875   28.0900    2.6801 C.3         1 GYN      -0.0494
     14 C9          0.6316   28.8799    3.3421 C.3         1 GYN      -0.0395
     15 C15         0.1676   27.9138   -0.8185 C.2         1 GYN      -0.1023
     16 C16         0.5161   28.1474   -2.1142 C.2         1 GYN      -0.0548
     17 C19         1.6608   29.0032   -2.4426 C.3         1 GYN      -0.0377
     18 C17        -0.4168   27.7705   -3.2052 C.3         1 GYN       0.0804
     19 O20        -1.0698   28.9761   -3.6163 O.3         1 GYN      -0.3807
     20 C18         0.1244   27.0433   -4.4786 C.3         1 GYN      -0.0158
     21 C21         0.4701   25.5290   -4.3746 C.3         1 GYN      -0.0223
     22 C43         1.7282   25.1702   -3.5402 C.3         1 GYN       0.0623
     23 C47         2.1143   23.6691   -3.5642 C.3         1 GYN      -0.0197
     24 C48         3.5864   23.6399   -4.0399 C.3         1 GYN      -0.0066
     25 C49         3.7273   23.1865   -5.5152 C.3         1 GYN      -0.0582
     26 O43         2.8692   25.8868   -4.0436 O.3         1 GYN      -0.3622
     27 C37         4.0642   25.1065   -3.8380 C.3         1 GYN       0.0865
     28 C36         4.7986   25.3338   -2.5750 C.2         1 GYN      -0.0553
     29 C38         6.1222   24.7321   -2.4161 C.3         1 GYN      -0.0379
     30 C35         4.2724   26.1050   -1.6006 C.2         1 GYN      -0.1039
     31 C34         4.8005   26.3395   -0.2663 C.3         1 GYN      -0.0315
     32 C33         3.8032   27.1180    0.6527 C.3         1 GYN       0.0100
     33 C32         2.4564   26.5474    0.8480 C.2         1 GYN       0.0383
     34 N31         2.3857   25.2697    0.6673 N.2         1 GYN      -0.2722
     35 C30         1.3414   24.3660    0.8151 C.3         1 GYN       0.0432
     36 C46        -0.0266   25.0519    0.9920 C.3         1 GYN      -0.0375
     37 C28         0.1476   26.3175    1.8603 C.3         1 GYN      -0.0530
     38 H1         -0.9545   31.1399    3.6189 H           1 GYN       0.0753
     39 H2         -1.6601   29.5857    5.2585 H           1 GYN       0.0338
     40 H3         -2.1570   28.3842    4.0362 H           1 GYN       0.0338
     41 H4         -3.7106   30.7667    5.0895 H           1 GYN       0.0553
     42 H5         -5.6913   29.3329    4.5765 H           1 GYN       0.0258
     43 H6         -4.5303   28.4346    5.5803 H           1 GYN       0.0258
     44 H7         -4.6337   28.1042    3.8265 H           1 GYN       0.0258
     45 H8         -0.3678   30.5199   -0.7783 H           1 GYN       0.0329
     46 H9         -0.6560   31.4720    0.6533 H           1 GYN       0.0329
     47 H10        -1.8620   30.2685    0.0940 H           1 GYN       0.0329
     48 H11         1.6169   29.0783    0.1688 H           1 GYN       0.0417
     49 H12         2.5675   28.8095    2.4203 H           1 GYN       0.0226
     50 H13         2.2208   27.4062    3.4159 H           1 GYN       0.0226
     51 H14         0.1156   28.1849    4.0053 H           1 GYN       0.0362
     52 H15         1.0833   29.6484    3.9734 H           1 GYN       0.0362
     53 H16        -0.6803   27.4198   -0.6747 H           1 GYN       0.0252
     54 H17         2.5788   28.6122   -2.0079 H           1 GYN       0.0377
     55 H18         1.5021   30.0071   -2.0514 H           1 GYN       0.0377
     56 H19         1.8321   29.1147   -3.5134 H           1 GYN       0.0377
     57 H20        -1.2275   27.1466   -2.8262 H           1 GYN       0.0742
     58 H21        -0.3856   29.5247   -4.0593 H           1 GYN       0.2129
     59 H22         0.9774   27.5741   -4.8971 H           1 GYN       0.0312
     60 H23        -0.6660   27.1117   -5.2338 H           1 GYN       0.0312
     61 H24         0.6286   25.1585   -5.3910 H           1 GYN       0.0293
     62 H25        -0.3913   24.9949   -3.9704 H           1 GYN       0.0293
     63 H26         1.5319   25.4632   -2.5060 H           1 GYN       0.0598
     64 H27         1.4604   23.0799   -4.2145 H           1 GYN       0.0295
     65 H28         2.0417   23.2491   -2.5555 H           1 GYN       0.0295
     66 H29         4.1549   22.9348   -3.4250 H           1 GYN       0.0345
     67 H30         4.7810   23.1579   -5.8022 H           1 GYN       0.0235
     68 H31         3.2000   23.8747   -6.1806 H           1 GYN       0.0235
     69 H32         3.3122   22.1856   -5.6418 H           1 GYN       0.0235
     70 H33         4.7431   25.4077   -4.6425 H           1 GYN       0.0747
     71 H34         6.8663   25.5080   -2.2267 H           1 GYN       0.0376
     72 H35         6.4389   24.1859   -3.3065 H           1 GYN       0.0376
     73 H36         6.1202   24.0311   -1.5821 H           1 GYN       0.0376
     74 H37         3.4085   26.5399   -1.7886 H           1 GYN       0.0245
     75 H38         5.7284   26.9050   -0.3557 H           1 GYN       0.0369
     76 H39         5.0342   25.3861    0.2122 H           1 GYN       0.0369
     77 H40         3.7210   28.1299    0.2520 H           1 GYN       0.0520
     78 H41         4.2740   27.1978    1.6355 H           1 GYN       0.0520
     79 H42         1.5592   23.7475    1.6906 H           1 GYN       0.0507
     80 H43         1.3127   23.7169   -0.0647 H           1 GYN       0.0507
     81 H44        -0.7273   24.3590    1.4695 H           1 GYN       0.0277
     82 H45        -0.4301   25.2969    0.0123 H           1 GYN       0.0277
     83 H46        -0.8112   26.8282    1.9109 H           1 GYN       0.0210
     84 H47         0.3543   25.9496    2.8680 H           1 GYN       0.0210
@<TRIPOS>BOND
     1     1     2   2
     2     2     3   1
     3     2     6   1
     4     3     4   1
     5     4     5   1
     6     4     8   1
     7     5     6   1
     8     6     7   1
     9     8     9   2
    10     8    14   1
    11     9    10   1
    12     9    11   1
    13    11    12   1
    14    11    15   1
    15    12    13   1
    16    12    33   1
    17    12    37   1
    18    13    14   1
    19    15    16   2
    20    16    17   1
    21    16    18   1
    22    18    19   1
    23    18    20   1
    24    20    21   1
    25    21    22   1
    26    22    23   1
    27    22    26   1
    28    23    24   1
    29    24    25   1
    30    24    27   1
    31    26    27   1
    32    27    28   1
    33    28    29   1
    34    28    30   2
    35    30    31   1
    36    31    32   1
    37    32    33   1
    38    33    34   2
    39    34    35   1
    40    35    36   1
    41    36    37   1
    42     4    38   1
    43     5    39   1
    44     5    40   1
    45     6    41   1
    46     7    42   1
    47     7    43   1
    48     7    44   1
    49    10    45   1
    50    10    46   1
    51    10    47   1
    52    11    48   1
    53    13    49   1
    54    13    50   1
    55    14    51   1
    56    14    52   1
    57    15    53   1
    58    17    54   1
    59    17    55   1
    60    17    56   1
    61    18    57   1
    62    19    58   1
    63    20    59   1
    64    20    60   1
    65    21    61   1
    66    21    62   1
    67    22    63   1
    68    23    64   1
    69    23    65   1
    70    24    66   1
    71    25    67   1
    72    25    68   1
    73    25    69   1
    74    27    70   1
    75    29    71   1
    76    29    72   1
    77    29    73   1
    78    30    74   1
    79    31    75   1
    80    31    76   1
    81    32    77   1
    82    32    78   1
    83    35    79   1
    84    35    80   1
    85    36    81   1
    86    36    82   1
    87    37    83   1
    88    37    84   1
@<TRIPOS>SUBSTRUCTURE
     1  GYN      2

