@<TRIPOS>MOLECULE
2x00_ligand_074
    84    88
SMALL
GAST_HUCK
****
This file was generated by PARSER (from files_GN.cpp)

@<TRIPOS>ATOM
      1 O6         -2.9317   24.8932   -4.0714 O.2         1 GYN      -0.3700
      2 C5         -1.9395   24.9120   -4.9842 C.2         1 GYN       0.2385
      3 O1         -0.9157   25.7905   -4.9447 O.3         1 GYN      -0.2655
      4 C2          0.0243   25.6404   -6.0172 C.3         1 GYN       0.1059
      5 C3         -0.5302   24.3817   -6.7499 C.3         1 GYN       0.0041
      6 C4         -1.8555   23.9550   -6.0782 C.3         1 GYN       0.0613
      7 C7         -3.0908   23.9997   -7.0170 C.3         1 GYN      -0.0438
      8 C8          0.2235   26.8467   -6.8655 C.2         1 GYN      -0.0559
      9 C13         1.1891   26.9339   -7.8363 C.2         1 GYN      -0.0876
     10 C14         1.9112   25.7144   -8.2771 C.3         1 GYN      -0.0498
     11 C12         1.4571   28.2095   -8.5857 C.3         1 GYN      -0.0250
     12 C27         0.8470   29.5427   -7.9395 C.3         1 GYN       0.0148
     13 C10        -0.6160   29.1686   -7.5227 C.3         1 GYN      -0.0494
     14 C9         -0.6623   27.9787   -6.5445 C.3         1 GYN      -0.0395
     15 C15         2.9002   28.3578   -8.9051 C.2         1 GYN      -0.1023
     16 C16         3.5401   28.2033  -10.0949 C.2         1 GYN      -0.0548
     17 C19         2.8018   28.0114  -11.3433 C.3         1 GYN      -0.0377
     18 C17         5.0147   28.0834  -10.1323 C.3         1 GYN       0.0804
     19 O20         5.3493   26.7852  -10.6352 O.3         1 GYN      -0.3807
     20 C18         5.7674   29.1570  -10.9827 C.3         1 GYN      -0.0158
     21 C21         6.0619   30.5035  -10.2627 C.3         1 GYN      -0.0223
     22 C43         4.8673   31.4908  -10.1894 C.3         1 GYN       0.0623
     23 C47         5.1418   32.7421   -9.3261 C.3         1 GYN      -0.0197
     24 C48         4.6637   33.9295  -10.1906 C.3         1 GYN      -0.0066
     25 C49         5.8365   34.8374  -10.6535 C.3         1 GYN      -0.0582
     26 O43         4.5686   31.9800  -11.5064 O.3         1 GYN      -0.3622
     27 C37         3.9183   33.2582  -11.3860 C.3         1 GYN       0.0865
     28 C36         2.4428   33.2252  -11.2741 C.2         1 GYN      -0.0553
     29 C38         1.7359   34.5021  -11.1497 C.3         1 GYN      -0.0379
     30 C35         1.7567   32.0642  -11.3910 C.2         1 GYN      -0.1039
     31 C34         0.3315   31.8394  -11.1745 C.3         1 GYN      -0.0315
     32 C33         0.0423   30.6885  -10.1621 C.3         1 GYN       0.0100
     33 C32         0.7182   30.7280   -8.8538 C.2         1 GYN       0.0383
     34 N31         0.8583   31.9268   -8.3895 N.2         1 GYN      -0.2722
     35 C30         1.2302   32.3969   -7.1320 C.3         1 GYN       0.0432
     36 C46         1.2424   31.3030   -6.0387 C.3         1 GYN      -0.0375
     37 C28         1.7056   29.9737   -6.6737 C.3         1 GYN      -0.0530
     38 H1          0.9779   25.4100   -5.5323 H           1 GYN       0.0753
     39 H2          0.1982   23.5742   -6.6594 H           1 GYN       0.0338
     40 H3         -0.7140   24.5652   -7.8057 H           1 GYN       0.0338
     41 H4         -1.7610   22.9451   -5.6735 H           1 GYN       0.0553
     42 H5         -3.9841   23.6844   -6.4796 H           1 GYN       0.0258
     43 H6         -2.9398   23.3194   -7.8597 H           1 GYN       0.0258
     44 H7         -3.2515   25.0095   -7.4049 H           1 GYN       0.0258
     45 H8          2.6125   25.8778   -9.0904 H           1 GYN       0.0329
     46 H9          1.2170   24.9639   -8.6652 H           1 GYN       0.0329
     47 H10         2.4797   25.2930   -7.4483 H           1 GYN       0.0329
     48 H11         0.9100   28.0347   -9.5079 H           1 GYN       0.0417
     49 H12        -1.1909   28.8735   -8.4063 H           1 GYN       0.0226
     50 H13        -1.1406   30.0168   -7.0760 H           1 GYN       0.0226
     51 H14        -0.4286   28.3408   -5.5379 H           1 GYN       0.0362
     52 H15        -1.7004   27.6350   -6.5265 H           1 GYN       0.0362
     53 H16         3.4867   28.4021   -8.1054 H           1 GYN       0.0252
     54 H17         2.1073   27.1739  -11.2657 H           1 GYN       0.0377
     55 H18         3.4523   27.8032  -12.1944 H           1 GYN       0.0377
     56 H19         2.2443   28.9116  -11.5759 H           1 GYN       0.0377
     57 H20         5.4522   28.1098   -9.1301 H           1 GYN       0.0742
     58 H21         5.0475   26.1508   -9.9487 H           1 GYN       0.2129
     59 H22         5.2454   29.3511  -11.9227 H           1 GYN       0.0312
     60 H23         6.7403   28.7346  -11.2520 H           1 GYN       0.0312
     61 H24         6.8744   31.0040  -10.7976 H           1 GYN       0.0293
     62 H25         6.4292   30.2944   -9.2557 H           1 GYN       0.0293
     63 H26         3.9928   30.9722   -9.7882 H           1 GYN       0.0598
     64 H27         6.1983   32.8308   -9.0564 H           1 GYN       0.0295
     65 H28         4.5642   32.6927   -8.3987 H           1 GYN       0.0295
     66 H29         3.9940   34.5526   -9.5914 H           1 GYN       0.0345
     67 H30         5.4540   35.6658  -11.2536 H           1 GYN       0.0235
     68 H31         6.5524   34.2708  -11.2529 H           1 GYN       0.0235
     69 H32         6.3550   35.2545   -9.7876 H           1 GYN       0.0235
     70 H33         4.1338   33.7932  -12.3162 H           1 GYN       0.0747
     71 H34         0.9939   34.6024  -11.9451 H           1 GYN       0.0376
     72 H35         2.4049   35.3610  -11.2308 H           1 GYN       0.0376
     73 H36         1.2359   34.5593  -10.1812 H           1 GYN       0.0376
     74 H37         2.2604   31.2547  -11.6560 H           1 GYN       0.0245
     75 H38        -0.1153   31.5752  -12.1364 H           1 GYN       0.0369
     76 H39        -0.1837   32.7346  -10.8229 H           1 GYN       0.0369
     77 H40         0.2575   29.7580  -10.6778 H           1 GYN       0.0520
     78 H41        -1.0357   30.6942   -9.9773 H           1 GYN       0.0520
     79 H42         0.5353   33.1843   -6.8379 H           1 GYN       0.0507
     80 H43         2.2243   32.8381   -7.2252 H           1 GYN       0.0507
     81 H44         0.2476   31.1882   -5.6047 H           1 GYN       0.0277
     82 H45         1.9219   31.5924   -5.2330 H           1 GYN       0.0277
     83 H46         2.7403   30.1520   -6.9702 H           1 GYN       0.0210
     84 H47         1.7324   29.1956   -5.9101 H           1 GYN       0.0210
@<TRIPOS>BOND
     1     1     2   2
     2     2     3   1
     3     2     6   1
     4     3     4   1
     5     4     5   1
     6     4     8   1
     7     5     6   1
     8     6     7   1
     9     8     9   2
    10     8    14   1
    11     9    10   1
    12     9    11   1
    13    11    12   1
    14    11    15   1
    15    12    13   1
    16    12    33   1
    17    12    37   1
    18    13    14   1
    19    15    16   2
    20    16    17   1
    21    16    18   1
    22    18    19   1
    23    18    20   1
    24    20    21   1
    25    21    22   1
    26    22    23   1
    27    22    26   1
    28    23    24   1
    29    24    25   1
    30    24    27   1
    31    26    27   1
    32    27    28   1
    33    28    29   1
    34    28    30   2
    35    30    31   1
    36    31    32   1
    37    32    33   1
    38    33    34   2
    39    34    35   1
    40    35    36   1
    41    36    37   1
    42     4    38   1
    43     5    39   1
    44     5    40   1
    45     6    41   1
    46     7    42   1
    47     7    43   1
    48     7    44   1
    49    10    45   1
    50    10    46   1
    51    10    47   1
    52    11    48   1
    53    13    49   1
    54    13    50   1
    55    14    51   1
    56    14    52   1
    57    15    53   1
    58    17    54   1
    59    17    55   1
    60    17    56   1
    61    18    57   1
    62    19    58   1
    63    20    59   1
    64    20    60   1
    65    21    61   1
    66    21    62   1
    67    22    63   1
    68    23    64   1
    69    23    65   1
    70    24    66   1
    71    25    67   1
    72    25    68   1
    73    25    69   1
    74    27    70   1
    75    29    71   1
    76    29    72   1
    77    29    73   1
    78    30    74   1
    79    31    75   1
    80    31    76   1
    81    32    77   1
    82    32    78   1
    83    35    79   1
    84    35    80   1
    85    36    81   1
    86    36    82   1
    87    37    83   1
    88    37    84   1
@<TRIPOS>SUBSTRUCTURE
     1  GYN      2

