@<TRIPOS>MOLECULE
2x00_ligand_082
    84    88
SMALL
GAST_HUCK
****
This file was generated by PARSER (from files_GN.cpp)

@<TRIPOS>ATOM
      1 O6          8.7872   26.6343  -18.8027 O.2         1 GYN      -0.3700
      2 C5          9.0436   27.4130  -17.7308 C.2         1 GYN       0.2385
      3 O1          9.9376   27.0827  -16.7852 O.3         1 GYN      -0.2655
      4 C2         10.0803   28.0307  -15.7304 C.3         1 GYN       0.1059
      5 C3          9.1098   29.1700  -16.1805 C.3         1 GYN       0.0041
      6 C4          8.4106   28.6967  -17.4854 C.3         1 GYN       0.0613
      7 C7          6.8816   28.5627  -17.3476 C.3         1 GYN      -0.0438
      8 C8          9.8967   27.5894  -14.3186 C.2         1 GYN      -0.0559
      9 C13         9.4916   26.3583  -13.8957 C.2         1 GYN      -0.0876
     10 C14         9.5739   25.1970  -14.8021 C.3         1 GYN      -0.0498
     11 C12         9.0879   26.0801  -12.4711 C.3         1 GYN      -0.0250
     12 C27         8.9051   27.3862  -11.5499 C.3         1 GYN       0.0148
     13 C10        10.1748   28.2628  -11.8423 C.3         1 GYN      -0.0494
     14 C9         10.2874   28.6295  -13.3406 C.3         1 GYN      -0.0395
     15 C15         7.8928   25.1995  -12.4322 C.2         1 GYN      -0.1023
     16 C16         7.7468   23.8985  -12.0572 C.2         1 GYN      -0.0548
     17 C19         8.8504   23.1461  -11.4727 C.3         1 GYN      -0.0377
     18 C17         6.4616   23.1935  -12.2897 C.3         1 GYN       0.0804
     19 O20         6.6532   22.0406  -13.1138 O.3         1 GYN      -0.3807
     20 C18         5.7023   22.7085  -11.0161 C.3         1 GYN      -0.0158
     21 C21         4.8414   23.7807  -10.2936 C.3         1 GYN      -0.0223
     22 C43         5.5413   24.5993   -9.1850 C.3         1 GYN       0.0623
     23 C47         4.5813   25.5554   -8.4458 C.3         1 GYN      -0.0197
     24 C48         4.9890   25.4478   -6.9578 C.3         1 GYN      -0.0066
     25 C49         3.8361   24.9401   -6.0524 C.3         1 GYN      -0.0582
     26 O43         6.0750   23.7326   -8.1734 O.3         1 GYN      -0.3622
     27 C37         6.2227   24.4935   -6.9581 C.3         1 GYN       0.0865
     28 C36         7.5092   25.1971   -6.7909 C.2         1 GYN      -0.0553
     29 C38         7.7729   25.8614   -5.5095 C.3         1 GYN      -0.0379
     30 C35         8.4482   25.1543   -7.7525 C.2         1 GYN      -0.1039
     31 C34         9.6445   25.9698   -7.8733 C.3         1 GYN      -0.0315
     32 C33         9.9177   26.4012   -9.3452 C.3         1 GYN       0.0100
     33 C32         8.8856   27.1593  -10.0664 C.2         1 GYN       0.0383
     34 N31         8.1290   27.8753   -9.2940 N.2         1 GYN      -0.2722
     35 C30         7.1931   28.8689   -9.5677 C.3         1 GYN       0.0432
     36 C46         7.2656   29.3769  -11.0294 C.3         1 GYN      -0.0375
     37 C28         7.5843   28.1771  -11.9458 C.3         1 GYN      -0.0530
     38 H1         11.1151   28.3744  -15.8297 H           1 GYN       0.0753
     39 H2          9.6888   30.0773  -16.3834 H           1 GYN       0.0338
     40 H3          8.3748   29.4202  -15.4097 H           1 GYN       0.0338
     41 H4          8.6507   29.3640  -18.3171 H           1 GYN       0.0553
     42 H5          6.4411   28.1918  -18.2676 H           1 GYN       0.0258
     43 H6          6.4454   29.5364  -17.1239 H           1 GYN       0.0258
     44 H7          6.6238   27.8827  -16.5371 H           1 GYN       0.0258
     45 H8          9.4649   24.2292  -14.2992 H           1 GYN       0.0329
     46 H9         10.5462   25.1559  -15.2879 H           1 GYN       0.0329
     47 H10         8.7832   25.2532  -15.5512 H           1 GYN       0.0329
     48 H11         9.9463   25.5319  -12.0856 H           1 GYN       0.0417
     49 H12        11.0862   27.7185  -11.5780 H           1 GYN       0.0226
     50 H13        10.1890   29.1784  -11.2404 H           1 GYN       0.0226
     51 H14         9.7017   29.5430  -13.4997 H           1 GYN       0.0362
     52 H15        11.3335   28.8998  -13.5177 H           1 GYN       0.0362
     53 H16         7.1058   25.5948  -12.8824 H           1 GYN       0.0252
     54 H17         9.7406   23.1938  -12.1016 H           1 GYN       0.0377
     55 H18         8.6081   22.0915  -11.3438 H           1 GYN       0.0377
     56 H19         9.0888   23.5524  -10.4937 H           1 GYN       0.0377
     57 H20         5.7626   23.8112  -12.8657 H           1 GYN       0.0742
     58 H21         6.8663   22.3850  -14.0228 H           1 GYN       0.2129
     59 H22         6.3730   22.2032  -10.3194 H           1 GYN       0.0312
     60 H23         4.9793   21.9578  -11.3402 H           1 GYN       0.0312
     61 H24         3.9867   23.2695   -9.8409 H           1 GYN       0.0293
     62 H25         4.4415   24.4762  -11.0322 H           1 GYN       0.0293
     63 H26         6.3512   25.1736   -9.6443 H           1 GYN       0.0598
     64 H27         3.5383   25.2692   -8.5968 H           1 GYN       0.0295
     65 H28         4.7039   26.5739   -8.8193 H           1 GYN       0.0295
     66 H29         5.2573   26.4469   -6.6013 H           1 GYN       0.0345
     67 H30         4.1685   24.8960   -5.0149 H           1 GYN       0.0235
     68 H31         3.5112   23.9427   -6.3568 H           1 GYN       0.0235
     69 H32         2.9834   25.6198   -6.1130 H           1 GYN       0.0235
     70 H33         6.1585   23.7604   -6.1502 H           1 GYN       0.0747
     71 H34         8.7096   25.4943   -5.0887 H           1 GYN       0.0376
     72 H35         6.9894   25.6644   -4.7767 H           1 GYN       0.0376
     73 H36         7.8402   26.9397   -5.6347 H           1 GYN       0.0376
     74 H37         8.3406   24.4800   -8.4708 H           1 GYN       0.0245
     75 H38        10.4910   25.3732   -7.5338 H           1 GYN       0.0369
     76 H39         9.6043   26.8611   -7.2394 H           1 GYN       0.0369
     77 H40        10.1539   25.5016   -9.8984 H           1 GYN       0.0520
     78 H41        10.8299   26.9992   -9.3357 H           1 GYN       0.0520
     79 H42         7.3584   29.7032   -8.8851 H           1 GYN       0.0507
     80 H43         6.1999   28.4626   -9.3646 H           1 GYN       0.0507
     81 H44         8.0288   30.1492  -11.1273 H           1 GYN       0.0277
     82 H45         6.3070   29.8199  -11.3119 H           1 GYN       0.0277
     83 H46         6.7227   27.5154  -11.8514 H           1 GYN       0.0210
     84 H47         7.5997   28.5120  -12.9850 H           1 GYN       0.0210
@<TRIPOS>BOND
     1     1     2   2
     2     2     3   1
     3     2     6   1
     4     3     4   1
     5     4     5   1
     6     4     8   1
     7     5     6   1
     8     6     7   1
     9     8     9   2
    10     8    14   1
    11     9    10   1
    12     9    11   1
    13    11    12   1
    14    11    15   1
    15    12    13   1
    16    12    33   1
    17    12    37   1
    18    13    14   1
    19    15    16   2
    20    16    17   1
    21    16    18   1
    22    18    19   1
    23    18    20   1
    24    20    21   1
    25    21    22   1
    26    22    23   1
    27    22    26   1
    28    23    24   1
    29    24    25   1
    30    24    27   1
    31    26    27   1
    32    27    28   1
    33    28    29   1
    34    28    30   2
    35    30    31   1
    36    31    32   1
    37    32    33   1
    38    33    34   2
    39    34    35   1
    40    35    36   1
    41    36    37   1
    42     4    38   1
    43     5    39   1
    44     5    40   1
    45     6    41   1
    46     7    42   1
    47     7    43   1
    48     7    44   1
    49    10    45   1
    50    10    46   1
    51    10    47   1
    52    11    48   1
    53    13    49   1
    54    13    50   1
    55    14    51   1
    56    14    52   1
    57    15    53   1
    58    17    54   1
    59    17    55   1
    60    17    56   1
    61    18    57   1
    62    19    58   1
    63    20    59   1
    64    20    60   1
    65    21    61   1
    66    21    62   1
    67    22    63   1
    68    23    64   1
    69    23    65   1
    70    24    66   1
    71    25    67   1
    72    25    68   1
    73    25    69   1
    74    27    70   1
    75    29    71   1
    76    29    72   1
    77    29    73   1
    78    30    74   1
    79    31    75   1
    80    31    76   1
    81    32    77   1
    82    32    78   1
    83    35    79   1
    84    35    80   1
    85    36    81   1
    86    36    82   1
    87    37    83   1
    88    37    84   1
@<TRIPOS>SUBSTRUCTURE
     1  GYN      2

