@<TRIPOS>MOLECULE
2x00_ligand_069
    84    88
SMALL
GAST_HUCK
****
This file was generated by PARSER (from files_GN.cpp)

@<TRIPOS>ATOM
      1 O6         11.3605   20.9371  -16.3611 O.2         1 GYN      -0.3700
      2 C5         11.2897   21.3556  -15.0853 C.2         1 GYN       0.2385
      3 O1         10.2075   21.1503  -14.3139 O.3         1 GYN      -0.2655
      4 C2         10.3386   21.6527  -12.9877 C.3         1 GYN       0.1059
      5 C3         11.7789   22.2512  -12.9639 C.3         1 GYN       0.0041
      6 C4         12.3884   22.0127  -14.3696 C.3         1 GYN       0.0613
      7 C7         12.8725   23.3052  -15.0714 C.3         1 GYN      -0.0438
      8 C8          9.2977   22.5863  -12.4603 C.2         1 GYN      -0.0559
      9 C13         8.6553   23.5483  -13.1897 C.2         1 GYN      -0.0876
     10 C14         8.5475   23.3730  -14.6473 C.3         1 GYN      -0.0498
     11 C12         7.9038   24.6969  -12.5686 C.3         1 GYN      -0.0250
     12 C27         8.0346   24.8218  -10.9709 C.3         1 GYN       0.0148
     13 C10         7.9467   23.3490  -10.4346 C.3         1 GYN      -0.0494
     14 C9          9.0468   22.4391  -11.0219 C.3         1 GYN      -0.0395
     15 C15         8.2653   25.9433  -13.2908 C.2         1 GYN      -0.1023
     16 C16         7.5505   26.6779  -14.1793 C.2         1 GYN      -0.0548
     17 C19         6.1463   26.3795  -14.4771 C.3         1 GYN      -0.0377
     18 C17         8.2452   27.6802  -15.0252 C.3         1 GYN       0.0804
     19 O20         8.2338   27.1742  -16.3623 O.3         1 GYN      -0.3807
     20 C18         7.6914   29.1412  -15.0561 C.3         1 GYN      -0.0158
     21 C21         7.9795   30.0324  -13.8110 C.3         1 GYN      -0.0223
     22 C43         7.1725   29.6599  -12.5428 C.3         1 GYN       0.0623
     23 C47         7.3865   30.5908  -11.3260 C.3         1 GYN      -0.0197
     24 C48         5.9791   31.1180  -10.9683 C.3         1 GYN      -0.0066
     25 C49         5.7564   32.5821  -11.4348 C.3         1 GYN      -0.0582
     26 O43         5.7636   29.6803  -12.8332 O.3         1 GYN      -0.3622
     27 C37         5.0283   30.1074  -11.6724 C.3         1 GYN       0.0865
     28 C36         4.5233   29.0344  -10.7865 C.2         1 GYN      -0.0553
     29 C38         3.5248   29.3807   -9.7750 C.3         1 GYN      -0.0379
     30 C35         4.9613   27.7634  -10.9105 C.2         1 GYN      -0.1039
     31 C34         4.6296   26.6174  -10.0769 C.3         1 GYN      -0.0315
     32 C33         5.5152   25.3610  -10.3781 C.3         1 GYN       0.0100
     33 C32         6.9642   25.5659  -10.2275 C.2         1 GYN       0.0383
     34 N31         7.2472   26.1926   -9.1287 N.2         1 GYN      -0.2722
     35 C30         8.4504   26.4594   -8.4890 C.3         1 GYN       0.0432
     36 C46         9.6449   25.6733   -9.0754 C.3         1 GYN      -0.0375
     37 C28         9.4249   25.4890  -10.5944 C.3         1 GYN      -0.0530
     38 H1         10.3460   20.7348  -12.3910 H           1 GYN       0.0753
     39 H2         12.3819   21.7460  -12.2058 H           1 GYN       0.0338
     40 H3         11.7638   23.3137  -12.7129 H           1 GYN       0.0338
     41 H4         13.2216   21.3091  -14.3054 H           1 GYN       0.0553
     42 H5         13.1830   23.0925  -16.0956 H           1 GYN       0.0258
     43 H6         13.7303   23.7129  -14.5311 H           1 GYN       0.0258
     44 H7         12.0834   24.0610  -15.0937 H           1 GYN       0.0258
     45 H8          8.1330   22.3871  -14.8765 H           1 GYN       0.0329
     46 H9          9.5264   23.4896  -15.1147 H           1 GYN       0.0329
     47 H10         7.8880   24.0758  -15.1345 H           1 GYN       0.0329
     48 H11         6.8654   24.4570  -12.7816 H           1 GYN       0.0417
     49 H12         6.9785   22.9174  -10.7128 H           1 GYN       0.0226
     50 H13         8.0052   23.3077   -9.3422 H           1 GYN       0.0226
     51 H14         9.9792   22.6137  -10.4755 H           1 GYN       0.0362
     52 H15         8.7423   21.4078  -10.8190 H           1 GYN       0.0362
     53 H16         9.2300   26.1748  -13.2203 H           1 GYN       0.0252
     54 H17         6.0240   25.3544  -14.8230 H           1 GYN       0.0377
     55 H18         5.7310   27.0188  -15.2552 H           1 GYN       0.0377
     56 H19         5.5395   26.5139  -13.5895 H           1 GYN       0.0377
     57 H20         9.3051   27.7676  -14.7648 H           1 GYN       0.0742
     58 H21         8.6906   26.3065  -16.3175 H           1 GYN       0.2129
     59 H22         6.6202   29.1452  -15.2627 H           1 GYN       0.0312
     60 H23         8.1649   29.6455  -15.9043 H           1 GYN       0.0312
     61 H24         7.7399   31.0670  -14.0749 H           1 GYN       0.0293
     62 H25         9.0480   29.9915  -13.5832 H           1 GYN       0.0293
     63 H26         7.4759   28.6529  -12.2531 H           1 GYN       0.0598
     64 H27         8.0946   31.3975  -11.5360 H           1 GYN       0.0295
     65 H28         7.7803   30.0070  -10.4899 H           1 GYN       0.0295
     66 H29         5.8487   31.1009   -9.8804 H           1 GYN       0.0345
     67 H30         4.7488   32.9093  -11.1714 H           1 GYN       0.0235
     68 H31         5.8841   32.6705  -12.5155 H           1 GYN       0.0235
     69 H32         6.4695   33.2456  -10.9411 H           1 GYN       0.0235
     70 H33         4.1480   30.6210  -12.0701 H           1 GYN       0.0747
     71 H34         2.6091   28.8109   -9.9452 H           1 GYN       0.0376
     72 H35         3.2631   30.4407   -9.7966 H           1 GYN       0.0376
     73 H36         3.9022   29.1565   -8.7765 H           1 GYN       0.0376
     74 H37         5.6161   27.5795  -11.6184 H           1 GYN       0.0245
     75 H38         3.5772   26.3679  -10.2218 H           1 GYN       0.0369
     76 H39         4.7541   26.8864   -9.0247 H           1 GYN       0.0369
     77 H40         5.2729   25.0102  -11.3780 H           1 GYN       0.0520
     78 H41         5.2116   24.5679   -9.6890 H           1 GYN       0.0520
     79 H42         8.3430   26.2243   -7.4272 H           1 GYN       0.0507
     80 H43         8.6266   27.5325   -8.5827 H           1 GYN       0.0507
     81 H44         9.7333   24.7018   -8.5872 H           1 GYN       0.0277
     82 H45        10.5746   26.2193   -8.8915 H           1 GYN       0.0277
     83 H46         9.4778   26.4990  -11.0096 H           1 GYN       0.0210
     84 H47        10.2552   24.9293  -11.0180 H           1 GYN       0.0210
@<TRIPOS>BOND
     1     1     2   2
     2     2     3   1
     3     2     6   1
     4     3     4   1
     5     4     5   1
     6     4     8   1
     7     5     6   1
     8     6     7   1
     9     8     9   2
    10     8    14   1
    11     9    10   1
    12     9    11   1
    13    11    12   1
    14    11    15   1
    15    12    13   1
    16    12    33   1
    17    12    37   1
    18    13    14   1
    19    15    16   2
    20    16    17   1
    21    16    18   1
    22    18    19   1
    23    18    20   1
    24    20    21   1
    25    21    22   1
    26    22    23   1
    27    22    26   1
    28    23    24   1
    29    24    25   1
    30    24    27   1
    31    26    27   1
    32    27    28   1
    33    28    29   1
    34    28    30   2
    35    30    31   1
    36    31    32   1
    37    32    33   1
    38    33    34   2
    39    34    35   1
    40    35    36   1
    41    36    37   1
    42     4    38   1
    43     5    39   1
    44     5    40   1
    45     6    41   1
    46     7    42   1
    47     7    43   1
    48     7    44   1
    49    10    45   1
    50    10    46   1
    51    10    47   1
    52    11    48   1
    53    13    49   1
    54    13    50   1
    55    14    51   1
    56    14    52   1
    57    15    53   1
    58    17    54   1
    59    17    55   1
    60    17    56   1
    61    18    57   1
    62    19    58   1
    63    20    59   1
    64    20    60   1
    65    21    61   1
    66    21    62   1
    67    22    63   1
    68    23    64   1
    69    23    65   1
    70    24    66   1
    71    25    67   1
    72    25    68   1
    73    25    69   1
    74    27    70   1
    75    29    71   1
    76    29    72   1
    77    29    73   1
    78    30    74   1
    79    31    75   1
    80    31    76   1
    81    32    77   1
    82    32    78   1
    83    35    79   1
    84    35    80   1
    85    36    81   1
    86    36    82   1
    87    37    83   1
    88    37    84   1
@<TRIPOS>SUBSTRUCTURE
     1  GYN      2

