@<TRIPOS>MOLECULE
2x00_ligand_011
    84    88
SMALL
GAST_HUCK
****
This file was generated by PARSER (from files_GN.cpp)

@<TRIPOS>ATOM
      1 O6          3.5712   22.7802   -4.4237 O.2         1 GYN      -0.3700
      2 C5          2.7319   23.7847   -4.0857 C.2         1 GYN       0.2385
      3 O1          1.6855   24.1358   -4.8501 O.3         1 GYN      -0.2655
      4 C2          0.8728   25.1789   -4.3134 C.3         1 GYN       0.1059
      5 C3          1.6299   25.5344   -2.9921 C.3         1 GYN       0.0041
      6 C4          2.8061   24.5317   -2.8359 C.3         1 GYN       0.0613
      7 C7          4.1895   25.2011   -2.6354 C.3         1 GYN      -0.0438
      8 C8          0.5481   26.3431   -5.1853 C.2         1 GYN      -0.0559
      9 C13         0.9150   26.4894   -6.4941 C.2         1 GYN      -0.0876
     10 C14         1.1672   25.2925   -7.3129 C.3         1 GYN      -0.0498
     11 C12         0.8613   27.8041   -7.2151 C.3         1 GYN      -0.0250
     12 C27         0.4122   29.0570   -6.3222 C.3         1 GYN       0.0148
     13 C10        -0.7795   28.5208   -5.4528 C.3         1 GYN      -0.0494
     14 C9         -0.3509   27.3301   -4.5622 C.3         1 GYN      -0.0395
     15 C15         2.1503   27.9954   -7.9278 C.2         1 GYN      -0.1023
     16 C16         2.4373   27.8996   -9.2523 C.2         1 GYN      -0.0548
     17 C19         1.3788   27.8165  -10.2671 C.3         1 GYN      -0.0377
     18 C17         3.8478   27.6910   -9.6733 C.3         1 GYN       0.0804
     19 O20         3.9657   26.3135  -10.0381 O.3         1 GYN      -0.3807
     20 C18         4.4284   28.5451  -10.8483 C.3         1 GYN      -0.0158
     21 C21         4.9682   29.9593  -10.4935 C.3         1 GYN      -0.0223
     22 C43         3.8900   30.9733  -10.0441 C.3         1 GYN       0.0623
     23 C47         4.4150   32.3950   -9.7707 C.3         1 GYN      -0.0197
     24 C48         3.1153   33.2151   -9.8296 C.3         1 GYN      -0.0066
     25 C49         3.3296   34.7238  -10.1092 C.3         1 GYN      -0.0582
     26 O43         2.8919   31.1472  -11.0615 O.3         1 GYN      -0.3622
     27 C37         2.3050   32.4573  -10.9221 C.3         1 GYN       0.0865
     28 C36         0.8585   32.3806  -10.6463 C.2         1 GYN      -0.0553
     29 C38        -0.0692   33.2580  -11.3572 C.3         1 GYN      -0.0379
     30 C35         0.4214   31.5133   -9.7061 C.2         1 GYN      -0.1039
     31 C34        -0.9427   31.3433   -9.2262 C.3         1 GYN      -0.0315
     32 C33        -1.1131   30.2362   -8.1346 C.3         1 GYN       0.0100
     33 C32        -0.1355   30.2586   -7.0338 C.2         1 GYN       0.0383
     34 N31         0.0148   31.4417   -6.5320 N.2         1 GYN      -0.2722
     35 C30         0.7285   31.8980   -5.4277 C.3         1 GYN       0.0432
     36 C46         1.2852   30.7646   -4.5339 C.3         1 GYN      -0.0375
     37 C28         1.6234   29.5408   -5.4146 C.3         1 GYN      -0.0530
     38 H1         -0.0698   24.6876   -4.0598 H           1 GYN       0.0753
     39 H2          0.9559   25.4553   -2.1333 H           1 GYN       0.0338
     40 H3          2.0115   26.5582   -3.0193 H           1 GYN       0.0338
     41 H4          2.6150   23.8417   -2.0067 H           1 GYN       0.0553
     42 H5          4.9707   24.4421   -2.5608 H           1 GYN       0.0258
     43 H6          4.1880   25.7829   -1.7116 H           1 GYN       0.0258
     44 H7          4.4244   25.8662   -3.4700 H           1 GYN       0.0258
     45 H8          0.4369   24.5137   -7.0856 H           1 GYN       0.0329
     46 H9          2.1776   24.9223   -7.1401 H           1 GYN       0.0329
     47 H10         1.0769   25.4768   -8.3813 H           1 GYN       0.0329
     48 H11         0.0720   27.6465   -7.9426 H           1 GYN       0.0417
     49 H12        -1.5897   28.1784   -6.1066 H           1 GYN       0.0226
     50 H13        -1.2069   29.3023   -4.8178 H           1 GYN       0.0226
     51 H14         0.1137   27.7382   -3.6625 H           1 GYN       0.0362
     52 H15        -1.2631   26.8213   -4.2391 H           1 GYN       0.0362
     53 H16         2.9338   28.0356   -7.3166 H           1 GYN       0.0252
     54 H17         0.6624   27.0288  -10.0430 H           1 GYN       0.0377
     55 H18         1.7622   27.5921  -11.2613 H           1 GYN       0.0377
     56 H19         0.8438   28.7625  -10.3278 H           1 GYN       0.0377
     57 H20         4.5444   27.8295   -8.8392 H           1 GYN       0.0742
     58 H21         4.1879   25.8348   -9.2107 H           1 GYN       0.2129
     59 H22         3.7140   28.6313  -11.6666 H           1 GYN       0.0312
     60 H23         5.2842   27.9952  -11.2528 H           1 GYN       0.0312
     61 H24         5.4653   30.3586  -11.3821 H           1 GYN       0.0293
     62 H25         5.7244   29.8684   -9.7097 H           1 GYN       0.0293
     63 H26         3.4241   30.5935   -9.1297 H           1 GYN       0.0598
     64 H27         5.1105   32.7081  -10.5554 H           1 GYN       0.0295
     65 H28         4.9048   32.4723   -8.7969 H           1 GYN       0.0295
     66 H29         2.6183   33.1261   -8.8555 H           1 GYN       0.0345
     67 H30         2.3653   35.2337  -10.1498 H           1 GYN       0.0235
     68 H31         3.8466   34.8758  -11.0584 H           1 GYN       0.0235
     69 H32         3.9245   35.1699   -9.3102 H           1 GYN       0.0235
     70 H33         2.4819   32.9367  -11.8899 H           1 GYN       0.0747
     71 H34        -0.7895   32.6611  -11.9196 H           1 GYN       0.0376
     72 H35         0.4341   33.9211  -12.0631 H           1 GYN       0.0376
     73 H36        -0.6076   33.8890  -10.6476 H           1 GYN       0.0376
     74 H37         1.1038   30.9491   -9.2647 H           1 GYN       0.0245
     75 H38        -1.5911   31.0946  -10.0701 H           1 GYN       0.0369
     76 H39        -1.2849   32.2953   -8.8111 H           1 GYN       0.0369
     77 H40        -1.1204   29.2801   -8.6488 H           1 GYN       0.0520
     78 H41        -2.1090   30.3520   -7.6968 H           1 GYN       0.0520
     79 H42         0.0739   32.5381   -4.8338 H           1 GYN       0.0507
     80 H43         1.5523   32.5100   -5.8023 H           1 GYN       0.0507
     81 H44         0.5522   30.4893   -3.7732 H           1 GYN       0.0277
     82 H45         2.1845   31.1082   -4.0168 H           1 GYN       0.0277
     83 H46         2.4540   29.8609   -6.0494 H           1 GYN       0.0210
     84 H47         2.0048   28.7383   -4.7810 H           1 GYN       0.0210
@<TRIPOS>BOND
     1     1     2   2
     2     2     3   1
     3     2     6   1
     4     3     4   1
     5     4     5   1
     6     4     8   1
     7     5     6   1
     8     6     7   1
     9     8     9   2
    10     8    14   1
    11     9    10   1
    12     9    11   1
    13    11    12   1
    14    11    15   1
    15    12    13   1
    16    12    33   1
    17    12    37   1
    18    13    14   1
    19    15    16   2
    20    16    17   1
    21    16    18   1
    22    18    19   1
    23    18    20   1
    24    20    21   1
    25    21    22   1
    26    22    23   1
    27    22    26   1
    28    23    24   1
    29    24    25   1
    30    24    27   1
    31    26    27   1
    32    27    28   1
    33    28    29   1
    34    28    30   2
    35    30    31   1
    36    31    32   1
    37    32    33   1
    38    33    34   2
    39    34    35   1
    40    35    36   1
    41    36    37   1
    42     4    38   1
    43     5    39   1
    44     5    40   1
    45     6    41   1
    46     7    42   1
    47     7    43   1
    48     7    44   1
    49    10    45   1
    50    10    46   1
    51    10    47   1
    52    11    48   1
    53    13    49   1
    54    13    50   1
    55    14    51   1
    56    14    52   1
    57    15    53   1
    58    17    54   1
    59    17    55   1
    60    17    56   1
    61    18    57   1
    62    19    58   1
    63    20    59   1
    64    20    60   1
    65    21    61   1
    66    21    62   1
    67    22    63   1
    68    23    64   1
    69    23    65   1
    70    24    66   1
    71    25    67   1
    72    25    68   1
    73    25    69   1
    74    27    70   1
    75    29    71   1
    76    29    72   1
    77    29    73   1
    78    30    74   1
    79    31    75   1
    80    31    76   1
    81    32    77   1
    82    32    78   1
    83    35    79   1
    84    35    80   1
    85    36    81   1
    86    36    82   1
    87    37    83   1
    88    37    84   1
@<TRIPOS>SUBSTRUCTURE
     1  GYN      2

