@<TRIPOS>MOLECULE
2x00_ligand_040
    84    88
SMALL
GAST_HUCK
****
This file was generated by PARSER (from files_GN.cpp)

@<TRIPOS>ATOM
      1 O6         -6.2241   28.5736   -9.0656 O.2         1 GYN      -0.3700
      2 C5         -5.7114   29.2586   -8.0179 C.2         1 GYN       0.2385
      3 O1         -4.5981   30.0201   -8.1115 O.3         1 GYN      -0.2655
      4 C2         -4.2550   30.6674   -6.8918 C.3         1 GYN       0.1059
      5 C3         -5.3932   30.2505   -5.9161 C.3         1 GYN       0.0041
      6 C4         -6.3369   29.3002   -6.7004 C.3         1 GYN       0.0613
      7 C7         -6.5198   27.9049   -6.0475 C.3         1 GYN      -0.0438
      8 C8         -2.8778   30.4556   -6.3545 C.2         1 GYN      -0.0559
      9 C13        -2.1896   29.2705   -6.3483 C.2         1 GYN      -0.0876
     10 C14        -2.5449   28.2244   -7.3235 C.3         1 GYN      -0.0498
     11 C12        -0.9560   29.0631   -5.5137 C.3         1 GYN      -0.0250
     12 C27        -0.7894   30.1130   -4.3202 C.3         1 GYN       0.0148
     13 C10        -0.9545   31.5153   -5.0074 C.3         1 GYN      -0.0494
     14 C9         -2.3364   31.6518   -5.6852 C.3         1 GYN      -0.0395
     15 C15        -0.7851   27.6522   -5.0706 C.2         1 GYN      -0.1023
     16 C16         0.0224   26.6931   -5.6039 C.2         1 GYN      -0.0548
     17 C19         1.0888   27.0487   -6.5452 C.3         1 GYN      -0.0377
     18 C17        -0.3601   25.2599   -5.5038 C.3         1 GYN       0.0804
     19 O20        -0.8720   24.9000   -6.7914 O.3         1 GYN      -0.3807
     20 C18         0.7048   24.1831   -5.0967 C.3         1 GYN      -0.0158
     21 C21         0.9175   23.9430   -3.5769 C.3         1 GYN      -0.0223
     22 C43         1.4870   25.1582   -2.8273 C.3         1 GYN       0.0623
     23 C47         1.6623   24.9896   -1.3095 C.3         1 GYN      -0.0197
     24 C48         2.5910   26.1783   -1.0132 C.3         1 GYN      -0.0066
     25 C49         3.3291   26.0880    0.3424 C.3         1 GYN      -0.0582
     26 O43         2.7991   25.4715   -3.3138 O.3         1 GYN      -0.3622
     27 C37         3.5002   26.1856   -2.2796 C.3         1 GYN       0.0865
     28 C36         3.8847   27.5262   -2.7528 C.2         1 GYN      -0.0553
     29 C38         5.2418   28.0146   -2.5244 C.3         1 GYN      -0.0379
     30 C35         2.9663   28.2784   -3.4016 C.2         1 GYN      -0.1039
     31 C34         3.1217   29.6478   -3.8741 C.3         1 GYN      -0.0315
     32 C33         1.8197   30.3557   -4.3852 C.3         1 GYN       0.0100
     33 C32         0.5615   30.0861   -3.6708 C.2         1 GYN       0.0383
     34 N31         0.7027   29.9205   -2.4006 N.2         1 GYN      -0.2722
     35 C30        -0.2152   29.6212   -1.4039 C.3         1 GYN       0.0432
     36 C46        -1.5476   29.1111   -1.9843 C.3         1 GYN      -0.0375
     37 C28        -1.9270   29.9757   -3.2091 C.3         1 GYN      -0.0530
     38 H1         -4.4010   31.7313   -7.1195 H           1 GYN       0.0753
     39 H2         -5.9503   31.1363   -5.5977 H           1 GYN       0.0338
     40 H3         -5.0026   29.7779   -5.0162 H           1 GYN       0.0338
     41 H4         -7.3236   29.7600   -6.8090 H           1 GYN       0.0553
     42 H5         -7.1338   27.2601   -6.6754 H           1 GYN       0.0258
     43 H6         -7.0206   28.0090   -5.0862 H           1 GYN       0.0258
     44 H7         -5.5659   27.4112   -5.8840 H           1 GYN       0.0258
     45 H8         -2.5536   28.6262   -8.3349 H           1 GYN       0.0329
     46 H9         -3.5154   27.8029   -7.0789 H           1 GYN       0.0329
     47 H10        -1.8546   27.3898   -7.3653 H           1 GYN       0.0329
     48 H11        -0.1687   29.2892   -6.2277 H           1 GYN       0.0417
     49 H12        -0.1945   31.6619   -5.7820 H           1 GYN       0.0226
     50 H13        -0.8274   32.3306   -4.2879 H           1 GYN       0.0226
     51 H14        -3.0525   31.9747   -4.9235 H           1 GYN       0.0362
     52 H15        -2.2617   32.4586   -6.4203 H           1 GYN       0.0362
     53 H16        -1.4986   27.3432   -4.4569 H           1 GYN       0.0252
     54 H17         0.6636   27.5103   -7.4375 H           1 GYN       0.0377
     55 H18         1.6624   26.1901   -6.8870 H           1 GYN       0.0377
     56 H19         1.7900   27.7394   -6.0805 H           1 GYN       0.0377
     57 H20        -1.2047   25.1317   -4.8218 H           1 GYN       0.0742
     58 H21        -0.0962   24.8617   -7.3867 H           1 GYN       0.2129
     59 H22         1.6680   24.3832   -5.5658 H           1 GYN       0.0312
     60 H23         0.3681   23.2228   -5.4966 H           1 GYN       0.0312
     61 H24         1.5945   23.0941   -3.4484 H           1 GYN       0.0293
     62 H25        -0.0342   23.6741   -3.1261 H           1 GYN       0.0293
     63 H26         0.8098   26.0010   -2.9947 H           1 GYN       0.0598
     64 H27         2.1465   24.0373   -1.0729 H           1 GYN       0.0295
     65 H28         0.7121   25.0634   -0.7739 H           1 GYN       0.0295
     66 H29         1.9751   27.0845   -0.9873 H           1 GYN       0.0345
     67 H30         3.9183   26.9919    0.5066 H           1 GYN       0.0235
     68 H31         3.9944   25.2249    0.3708 H           1 GYN       0.0235
     69 H32         2.6049   25.9971    1.1544 H           1 GYN       0.0235
     70 H33         4.3862   25.5760   -2.0793 H           1 GYN       0.0747
     71 H34         5.7254   28.2145   -3.4821 H           1 GYN       0.0376
     72 H35         5.8647   27.2967   -1.9875 H           1 GYN       0.0376
     73 H36         5.2175   28.9338   -1.9340 H           1 GYN       0.0376
     74 H37         2.0800   27.8716   -3.5666 H           1 GYN       0.0245
     75 H38         3.8473   29.6292   -4.6893 H           1 GYN       0.0369
     76 H39         3.5318   30.2576   -3.0648 H           1 GYN       0.0369
     77 H40         1.7198   30.1176   -5.4415 H           1 GYN       0.0520
     78 H41         1.9831   31.4361   -4.3347 H           1 GYN       0.0520
     79 H42        -0.3773   30.5195   -0.8049 H           1 GYN       0.0507
     80 H43         0.2087   28.8533   -0.7557 H           1 GYN       0.0507
     81 H44        -2.3265   29.1674   -1.2187 H           1 GYN       0.0277
     82 H45        -1.4408   28.0651   -2.2737 H           1 GYN       0.0277
     83 H46        -2.8475   29.5740   -3.6309 H           1 GYN       0.0210
     84 H47        -2.1808   30.9628   -2.8058 H           1 GYN       0.0210
@<TRIPOS>BOND
     1     1     2   2
     2     2     3   1
     3     2     6   1
     4     3     4   1
     5     4     5   1
     6     4     8   1
     7     5     6   1
     8     6     7   1
     9     8     9   2
    10     8    14   1
    11     9    10   1
    12     9    11   1
    13    11    12   1
    14    11    15   1
    15    12    13   1
    16    12    33   1
    17    12    37   1
    18    13    14   1
    19    15    16   2
    20    16    17   1
    21    16    18   1
    22    18    19   1
    23    18    20   1
    24    20    21   1
    25    21    22   1
    26    22    23   1
    27    22    26   1
    28    23    24   1
    29    24    25   1
    30    24    27   1
    31    26    27   1
    32    27    28   1
    33    28    29   1
    34    28    30   2
    35    30    31   1
    36    31    32   1
    37    32    33   1
    38    33    34   2
    39    34    35   1
    40    35    36   1
    41    36    37   1
    42     4    38   1
    43     5    39   1
    44     5    40   1
    45     6    41   1
    46     7    42   1
    47     7    43   1
    48     7    44   1
    49    10    45   1
    50    10    46   1
    51    10    47   1
    52    11    48   1
    53    13    49   1
    54    13    50   1
    55    14    51   1
    56    14    52   1
    57    15    53   1
    58    17    54   1
    59    17    55   1
    60    17    56   1
    61    18    57   1
    62    19    58   1
    63    20    59   1
    64    20    60   1
    65    21    61   1
    66    21    62   1
    67    22    63   1
    68    23    64   1
    69    23    65   1
    70    24    66   1
    71    25    67   1
    72    25    68   1
    73    25    69   1
    74    27    70   1
    75    29    71   1
    76    29    72   1
    77    29    73   1
    78    30    74   1
    79    31    75   1
    80    31    76   1
    81    32    77   1
    82    32    78   1
    83    35    79   1
    84    35    80   1
    85    36    81   1
    86    36    82   1
    87    37    83   1
    88    37    84   1
@<TRIPOS>SUBSTRUCTURE
     1  GYN      2

