@<TRIPOS>MOLECULE
2x00_ligand_022
    84    88
SMALL
GAST_HUCK
****
This file was generated by PARSER (from files_GN.cpp)

@<TRIPOS>ATOM
      1 O6          7.9094   24.5556   -7.8594 O.2         1 GYN      -0.3700
      2 C5          7.1669   24.0600   -8.8729 C.2         1 GYN       0.2385
      3 O1          7.6603   23.2394   -9.8198 O.3         1 GYN      -0.2655
      4 C2          6.7069   22.8182  -10.7933 C.3         1 GYN       0.1059
      5 C3          5.3796   23.4872  -10.2772 C.3         1 GYN       0.0041
      6 C4          5.7522   24.3658   -9.0540 C.3         1 GYN       0.0613
      7 C7          5.5251   25.8858   -9.2744 C.3         1 GYN      -0.0438
      8 C8          7.2235   23.0531  -12.1748 C.2         1 GYN      -0.0559
      9 C13         8.4360   22.5864  -12.6152 C.2         1 GYN      -0.0876
     10 C14         9.1588   21.5807  -11.8085 C.3         1 GYN      -0.0498
     11 C12         8.9959   22.9221  -13.9728 C.3         1 GYN      -0.0250
     12 C27         8.2461   24.1112  -14.7414 C.3         1 GYN       0.0148
     13 C10         6.7215   23.7970  -14.5729 C.3         1 GYN      -0.0494
     14 C9          6.3126   23.7340  -13.0915 C.3         1 GYN      -0.0395
     15 C15        10.4640   23.1279  -13.9117 C.2         1 GYN      -0.1023
     16 C16        11.4690   22.3605  -14.4066 C.2         1 GYN      -0.0548
     17 C19        11.2064   21.1746  -15.2254 C.3         1 GYN      -0.0377
     18 C17        12.8697   22.6201  -14.0033 C.3         1 GYN       0.0804
     19 O20        13.3695   21.4628  -13.3258 O.3         1 GYN      -0.3807
     20 C18        13.8687   22.9934  -15.1447 C.3         1 GYN      -0.0158
     21 C21        13.8699   24.4727  -15.6203 C.3         1 GYN      -0.0223
     22 C43        12.7601   24.8518  -16.6331 C.3         1 GYN       0.0623
     23 C47        12.7328   26.3567  -16.9807 C.3         1 GYN      -0.0197
     24 C48        12.6055   26.4030  -18.5203 C.3         1 GYN      -0.0066
     25 C49        13.8721   26.9784  -19.2132 C.3         1 GYN      -0.0582
     26 O43        12.9759   24.1707  -17.8793 O.3         1 GYN      -0.3622
     27 C37        12.3338   24.9213  -18.9272 C.3         1 GYN       0.0865
     28 C36        10.9151   24.5901  -19.1865 C.2         1 GYN      -0.0553
     29 C38        10.2136   25.3371  -20.2336 C.3         1 GYN      -0.0379
     30 C35        10.3127   23.5611  -18.5476 C.2         1 GYN      -0.1039
     31 C34         8.9019   23.1983  -18.5755 C.3         1 GYN      -0.0315
     32 C33         8.2718   23.0844  -17.1551 C.3         1 GYN       0.0100
     33 C32         8.4634   24.2109  -16.2261 C.2         1 GYN       0.0383
     34 N31         8.4259   25.3649  -16.8087 N.2         1 GYN      -0.2722
     35 C30         8.3221   26.6606  -16.3060 C.3         1 GYN       0.0432
     36 C46         7.9714   26.7156  -14.8005 C.3         1 GYN      -0.0375
     37 C28         8.6282   25.5108  -14.0886 C.3         1 GYN      -0.0530
     38 H1          6.5897   21.7383  -10.6701 H           1 GYN       0.0753
     39 H2          4.6730   22.7034   -9.9741 H           1 GYN       0.0338
     40 H3          4.8532   24.0992  -11.0111 H           1 GYN       0.0338
     41 H4          5.1852   24.0343   -8.1766 H           1 GYN       0.0553
     42 H5          5.7936   26.4375   -8.3707 H           1 GYN       0.0258
     43 H6          4.4716   26.0796   -9.4953 H           1 GYN       0.0258
     44 H7          6.1304   26.2551  -10.1088 H           1 GYN       0.0258
     45 H8          9.9899   21.1112  -12.3346 H           1 GYN       0.0329
     46 H9          8.4980   20.7614  -11.5180 H           1 GYN       0.0329
     47 H10         9.5753   22.0426  -10.9111 H           1 GYN       0.0329
     48 H11         8.7962   22.0106  -14.5320 H           1 GYN       0.0417
     49 H12         6.4884   22.8183  -15.0127 H           1 GYN       0.0226
     50 H13         6.0861   24.5298  -15.0863 H           1 GYN       0.0226
     51 H14         6.1682   24.7611  -12.7539 H           1 GYN       0.0362
     52 H15         5.3451   23.2262  -13.0801 H           1 GYN       0.0362
     53 H16        10.7379   23.8697  -13.3119 H           1 GYN       0.0252
     54 H17        10.5695   20.4699  -14.6885 H           1 GYN       0.0377
     55 H18        12.1170   20.6376  -15.4938 H           1 GYN       0.0377
     56 H19        10.7224   21.4577  -16.1539 H           1 GYN       0.0377
     57 H20        12.9344   23.4117  -13.2549 H           1 GYN       0.0742
     58 H21        12.8441   21.3945  -12.5001 H           1 GYN       0.2129
     59 H22        13.7442   22.3297  -16.0025 H           1 GYN       0.0312
     60 H23        14.8745   22.8137  -14.7559 H           1 GYN       0.0312
     61 H24        14.8329   24.6698  -16.1018 H           1 GYN       0.0293
     62 H25        13.8077   25.1284  -14.7492 H           1 GYN       0.0293
     63 H26        11.7886   24.5627  -16.2233 H           1 GYN       0.0598
     64 H27        13.6328   26.8742  -16.6357 H           1 GYN       0.0295
     65 H28        11.8713   26.8342  -16.5053 H           1 GYN       0.0295
     66 H29        11.7703   27.0595  -18.7831 H           1 GYN       0.0345
     67 H30        13.7311   26.9954  -20.2959 H           1 GYN       0.0235
     68 H31        14.7493   26.3694  -18.9836 H           1 GYN       0.0235
     69 H32        14.0557   28.0006  -18.8771 H           1 GYN       0.0235
     70 H33        12.8688   24.6729  -19.8487 H           1 GYN       0.0747
     71 H34         9.7934   24.6508  -20.9723 H           1 GYN       0.0376
     72 H35        10.8714   26.0203  -20.7744 H           1 GYN       0.0376
     73 H36         9.4078   25.9287  -19.7943 H           1 GYN       0.0376
     74 H37        10.8742   22.9712  -17.9838 H           1 GYN       0.0245
     75 H38         8.8145   22.2297  -19.0742 H           1 GYN       0.0369
     76 H39         8.3036   23.9055  -19.1514 H           1 GYN       0.0369
     77 H40         8.6356   22.1614  -16.7172 H           1 GYN       0.0520
     78 H41         7.1964   22.9486  -17.2975 H           1 GYN       0.0520
     79 H42         7.5521   27.1879  -16.8722 H           1 GYN       0.0507
     80 H43         9.2741   27.1641  -16.4841 H           1 GYN       0.0507
     81 H44         6.8884   26.6881  -14.6636 H           1 GYN       0.0277
     82 H45         8.3343   27.6518  -14.3676 H           1 GYN       0.0277
     83 H46         9.7038   25.6779  -14.1684 H           1 GYN       0.0210
     84 H47         8.3860   25.5469  -13.0245 H           1 GYN       0.0210
@<TRIPOS>BOND
     1     1     2   2
     2     2     3   1
     3     2     6   1
     4     3     4   1
     5     4     5   1
     6     4     8   1
     7     5     6   1
     8     6     7   1
     9     8     9   2
    10     8    14   1
    11     9    10   1
    12     9    11   1
    13    11    12   1
    14    11    15   1
    15    12    13   1
    16    12    33   1
    17    12    37   1
    18    13    14   1
    19    15    16   2
    20    16    17   1
    21    16    18   1
    22    18    19   1
    23    18    20   1
    24    20    21   1
    25    21    22   1
    26    22    23   1
    27    22    26   1
    28    23    24   1
    29    24    25   1
    30    24    27   1
    31    26    27   1
    32    27    28   1
    33    28    29   1
    34    28    30   2
    35    30    31   1
    36    31    32   1
    37    32    33   1
    38    33    34   2
    39    34    35   1
    40    35    36   1
    41    36    37   1
    42     4    38   1
    43     5    39   1
    44     5    40   1
    45     6    41   1
    46     7    42   1
    47     7    43   1
    48     7    44   1
    49    10    45   1
    50    10    46   1
    51    10    47   1
    52    11    48   1
    53    13    49   1
    54    13    50   1
    55    14    51   1
    56    14    52   1
    57    15    53   1
    58    17    54   1
    59    17    55   1
    60    17    56   1
    61    18    57   1
    62    19    58   1
    63    20    59   1
    64    20    60   1
    65    21    61   1
    66    21    62   1
    67    22    63   1
    68    23    64   1
    69    23    65   1
    70    24    66   1
    71    25    67   1
    72    25    68   1
    73    25    69   1
    74    27    70   1
    75    29    71   1
    76    29    72   1
    77    29    73   1
    78    30    74   1
    79    31    75   1
    80    31    76   1
    81    32    77   1
    82    32    78   1
    83    35    79   1
    84    35    80   1
    85    36    81   1
    86    36    82   1
    87    37    83   1
    88    37    84   1
@<TRIPOS>SUBSTRUCTURE
     1  GYN      2

