@<TRIPOS>MOLECULE
2x00_ligand_063
    84    88
SMALL
GAST_HUCK
****
This file was generated by PARSER (from files_GN.cpp)

@<TRIPOS>ATOM
      1 O6         -5.2316   30.8194   -8.6324 O.2         1 GYN      -0.3700
      2 C5         -4.7540   30.9701   -7.3728 C.2         1 GYN       0.2385
      3 O1         -3.4938   31.3799   -7.1234 O.3         1 GYN      -0.2655
      4 C2         -3.1434   31.4927   -5.7508 C.3         1 GYN       0.1059
      5 C3         -4.5126   31.1485   -5.0609 C.3         1 GYN       0.0041
      6 C4         -5.5300   30.7495   -6.1583 C.3         1 GYN       0.0613
      7 C7         -6.0430   29.2899   -6.0609 C.3         1 GYN      -0.0438
      8 C8         -1.9090   30.7505   -5.3389 C.2         1 GYN      -0.0559
      9 C13        -0.8848   30.4057   -6.1846 C.2         1 GYN      -0.0876
     10 C14        -0.7920   31.0131   -7.5225 C.3         1 GYN      -0.0498
     11 C12         0.2810   29.5549   -5.7524 C.3         1 GYN      -0.0250
     12 C27         0.1469   28.8977   -4.3024 C.3         1 GYN       0.0148
     13 C10        -0.3647   30.0697   -3.3945 C.3         1 GYN      -0.0494
     14 C9         -1.7298   30.6126   -3.8809 C.3         1 GYN      -0.0395
     15 C15         0.5967   28.5497   -6.7898 C.2         1 GYN      -0.1023
     16 C16         1.6752   28.4682   -7.6200 C.2         1 GYN      -0.0548
     17 C19         2.7422   29.4678   -7.5765 C.3         1 GYN      -0.0377
     18 C17         1.6733   27.4811   -8.7208 C.3         1 GYN       0.0804
     19 O20         1.4468   28.2095   -9.9287 O.3         1 GYN      -0.3807
     20 C18         2.9294   26.5751   -8.9340 C.3         1 GYN      -0.0158
     21 C21         3.1211   25.3682   -7.9759 C.3         1 GYN      -0.0223
     22 C43         3.6440   25.7076   -6.5576 C.3         1 GYN       0.0623
     23 C47         3.9929   24.4661   -5.6980 C.3         1 GYN      -0.0197
     24 C48         5.4818   24.6493   -5.3381 C.3         1 GYN      -0.0066
     25 C49         6.4221   23.8264   -6.2615 C.3         1 GYN      -0.0582
     26 O43         4.8523   26.4882   -6.6339 O.3         1 GYN      -0.3622
     27 C37         5.6879   26.1822   -5.4976 C.3         1 GYN       0.0865
     28 C36         5.4413   26.9704   -4.2677 C.2         1 GYN      -0.0553
     29 C38         6.3039   26.7584   -3.1077 C.3         1 GYN      -0.0379
     30 C35         4.4551   27.8945   -4.2233 C.2         1 GYN      -0.1039
     31 C34         3.9550   28.6155   -3.0630 C.3         1 GYN      -0.0315
     32 C33         2.5612   29.2802   -3.3221 C.3         1 GYN       0.0100
     33 C32         1.4435   28.4023   -3.7265 C.2         1 GYN       0.0383
     34 N31         1.5909   27.1656   -3.3752 N.2         1 GYN      -0.2722
     35 C30         0.7547   26.0672   -3.4927 C.3         1 GYN       0.0432
     36 C46        -0.3843   26.3088   -4.4986 C.3         1 GYN      -0.0375
     37 C28        -0.9448   27.7365   -4.2857 C.3         1 GYN      -0.0530
     38 H1         -2.9298   32.5517   -5.5758 H           1 GYN       0.0753
     39 H2         -4.8823   32.0325   -4.5290 H           1 GYN       0.0338
     40 H3         -4.4408   30.3480   -4.3326 H           1 GYN       0.0338
     41 H4         -6.3792   31.4344   -6.1603 H           1 GYN       0.0553
     42 H5         -6.7113   29.0673   -6.8956 H           1 GYN       0.0258
     43 H6         -6.5941   29.1636   -5.1308 H           1 GYN       0.0258
     44 H7         -5.2067   28.5852   -6.0781 H           1 GYN       0.0258
     45 H8          0.2003   30.9583   -7.9486 H           1 GYN       0.0329
     46 H9         -1.0400   32.0780   -7.4954 H           1 GYN       0.0329
     47 H10        -1.4568   30.4916   -8.2154 H           1 GYN       0.0329
     48 H11         1.1047   30.2689   -5.6887 H           1 GYN       0.0417
     49 H12         0.3362   30.9072   -3.4220 H           1 GYN       0.0226
     50 H13        -0.4535   29.7544   -2.3524 H           1 GYN       0.0226
     51 H14        -2.4824   29.9354   -3.4831 H           1 GYN       0.0362
     52 H15        -1.8862   31.5878   -3.4065 H           1 GYN       0.0362
     53 H16        -0.1451   27.9197   -6.9734 H           1 GYN       0.0252
     54 H17         3.2027   29.4800   -6.5954 H           1 GYN       0.0377
     55 H18         2.3635   30.4663   -7.7816 H           1 GYN       0.0377
     56 H19         3.5279   29.2887   -8.3081 H           1 GYN       0.0377
     57 H20         0.8204   26.7995   -8.6460 H           1 GYN       0.0742
     58 H21         2.2631   28.7324  -10.0878 H           1 GYN       0.2129
     59 H22         3.8444   27.1674   -8.9590 H           1 GYN       0.0312
     60 H23         2.8299   26.1440   -9.9330 H           1 GYN       0.0312
     61 H24         3.8395   24.6895   -8.4444 H           1 GYN       0.0293
     62 H25         2.1726   24.8342   -7.8876 H           1 GYN       0.0293
     63 H26         2.8673   26.2848   -6.0494 H           1 GYN       0.0598
     64 H27         3.8070   23.5207   -6.2153 H           1 GYN       0.0295
     65 H28         3.3963   24.4658   -4.7825 H           1 GYN       0.0295
     66 H29         5.6583   24.3156   -4.3115 H           1 GYN       0.0345
     67 H30         7.4613   24.0196   -5.9947 H           1 GYN       0.0235
     68 H31         6.2748   24.0936   -7.3107 H           1 GYN       0.0235
     69 H32         6.2324   22.7577   -6.1409 H           1 GYN       0.0235
     70 H33         6.7162   26.3981   -5.8011 H           1 GYN       0.0747
     71 H34         6.7519   27.7043   -2.7988 H           1 GYN       0.0376
     72 H35         7.1218   26.0666   -3.3209 H           1 GYN       0.0376
     73 H36         5.7263   26.3471   -2.2775 H           1 GYN       0.0376
     74 H37         3.9760   28.0744   -5.0613 H           1 GYN       0.0245
     75 H38         4.6790   29.3849   -2.7816 H           1 GYN       0.0369
     76 H39         3.8546   27.9318   -2.2157 H           1 GYN       0.0369
     77 H40         2.7084   30.0621   -4.0692 H           1 GYN       0.0520
     78 H41         2.2721   29.7750   -2.3923 H           1 GYN       0.0520
     79 H42         0.3519   25.8508   -2.5018 H           1 GYN       0.0507
     80 H43         1.3382   25.2039   -3.8110 H           1 GYN       0.0507
     81 H44        -1.1748   25.5680   -4.3583 H           1 GYN       0.0277
     82 H45         0.0045   26.1847   -5.5081 H           1 GYN       0.0277
     83 H46        -1.7114   27.9107   -5.0438 H           1 GYN       0.0210
     84 H47        -1.4585   27.7181   -3.3181 H           1 GYN       0.0210
@<TRIPOS>BOND
     1     1     2   2
     2     2     3   1
     3     2     6   1
     4     3     4   1
     5     4     5   1
     6     4     8   1
     7     5     6   1
     8     6     7   1
     9     8     9   2
    10     8    14   1
    11     9    10   1
    12     9    11   1
    13    11    12   1
    14    11    15   1
    15    12    13   1
    16    12    33   1
    17    12    37   1
    18    13    14   1
    19    15    16   2
    20    16    17   1
    21    16    18   1
    22    18    19   1
    23    18    20   1
    24    20    21   1
    25    21    22   1
    26    22    23   1
    27    22    26   1
    28    23    24   1
    29    24    25   1
    30    24    27   1
    31    26    27   1
    32    27    28   1
    33    28    29   1
    34    28    30   2
    35    30    31   1
    36    31    32   1
    37    32    33   1
    38    33    34   2
    39    34    35   1
    40    35    36   1
    41    36    37   1
    42     4    38   1
    43     5    39   1
    44     5    40   1
    45     6    41   1
    46     7    42   1
    47     7    43   1
    48     7    44   1
    49    10    45   1
    50    10    46   1
    51    10    47   1
    52    11    48   1
    53    13    49   1
    54    13    50   1
    55    14    51   1
    56    14    52   1
    57    15    53   1
    58    17    54   1
    59    17    55   1
    60    17    56   1
    61    18    57   1
    62    19    58   1
    63    20    59   1
    64    20    60   1
    65    21    61   1
    66    21    62   1
    67    22    63   1
    68    23    64   1
    69    23    65   1
    70    24    66   1
    71    25    67   1
    72    25    68   1
    73    25    69   1
    74    27    70   1
    75    29    71   1
    76    29    72   1
    77    29    73   1
    78    30    74   1
    79    31    75   1
    80    31    76   1
    81    32    77   1
    82    32    78   1
    83    35    79   1
    84    35    80   1
    85    36    81   1
    86    36    82   1
    87    37    83   1
    88    37    84   1
@<TRIPOS>SUBSTRUCTURE
     1  GYN      2

