@<TRIPOS>MOLECULE
2x00_ligand_057
    84    88
SMALL
GAST_HUCK
****
This file was generated by PARSER (from files_GN.cpp)

@<TRIPOS>ATOM
      1 O6          5.8464   25.6103   -5.6570 O.2         1 GYN      -0.3700
      2 C5          5.5150   25.2548   -6.9154 C.2         1 GYN       0.2385
      3 O1          6.1671   24.2907   -7.5928 O.3         1 GYN      -0.2655
      4 C2          5.6297   24.0537   -8.8955 C.3         1 GYN       0.1059
      5 C3          4.4463   25.0629   -8.9992 C.3         1 GYN       0.0041
      6 C4          4.3857   25.8240   -7.6492 C.3         1 GYN       0.0613
      7 C7          4.4719   27.3657   -7.7910 C.3         1 GYN      -0.0438
      8 C8          6.6236   24.1640   -9.9931 C.2         1 GYN      -0.0559
      9 C13         6.4311   23.6230  -11.2332 C.2         1 GYN      -0.0876
     10 C14         5.0992   23.1003  -11.5999 C.3         1 GYN      -0.0498
     11 C12         7.5049   23.6171  -12.2819 C.3         1 GYN      -0.0250
     12 C27         8.9713   23.9789  -11.7620 C.3         1 GYN       0.0148
     13 C10         8.7746   25.2399  -10.8532 C.3         1 GYN      -0.0494
     14 C9          7.8201   24.9529   -9.6708 C.3         1 GYN      -0.0395
     15 C15         7.5163   22.3379  -13.0162 C.2         1 GYN      -0.1023
     16 C16         7.1465   22.0658  -14.2959 C.2         1 GYN      -0.0548
     17 C19         6.6239   23.1131  -15.1780 C.3         1 GYN      -0.0377
     18 C17         7.0018   20.6546  -14.7031 C.3         1 GYN       0.0804
     19 O20         5.5951   20.4051  -14.7427 O.3         1 GYN      -0.3807
     20 C18         7.6329   20.1866  -16.0540 C.3         1 GYN      -0.0158
     21 C21         9.1708   19.9420  -16.0790 C.3         1 GYN      -0.0223
     22 C43        10.0509   21.2153  -16.1251 C.3         1 GYN       0.0623
     23 C47        11.5598   20.9513  -16.3456 C.3         1 GYN      -0.0197
     24 C48        11.9161   21.7563  -17.6139 C.3         1 GYN      -0.0066
     25 C49        11.9791   20.8621  -18.8823 C.3         1 GYN      -0.0582
     26 O43         9.6385   22.0767  -17.2050 O.3         1 GYN      -0.3622
     27 C37        10.7817   22.8163  -17.6841 C.3         1 GYN       0.0865
     28 C36        11.0800   24.0910  -16.9868 C.2         1 GYN      -0.0553
     29 C38        12.1681   24.9258  -17.4932 C.3         1 GYN      -0.0379
     30 C35        10.3487   24.4916  -15.9251 C.2         1 GYN      -0.1039
     31 C34        10.5962   25.6205  -15.0396 C.3         1 GYN      -0.0315
     32 C33         9.7822   25.5509  -13.7057 C.3         1 GYN       0.0100
     33 C32         9.9264   24.3425  -12.8652 C.2         1 GYN       0.0383
     34 N31        11.0219   23.6900  -13.0414 N.2         1 GYN      -0.2722
     35 C30        11.5309   22.5432  -12.4453 C.3         1 GYN       0.0432
     36 C46        10.4780   21.7946  -11.6058 C.3         1 GYN      -0.0375
     37 C28         9.5837   22.8142  -10.8580 C.3         1 GYN      -0.0530
     38 H1          5.2401   23.0322   -8.8390 H           1 GYN       0.0753
     39 H2          3.5065   24.5314   -9.1709 H           1 GYN       0.0338
     40 H3          4.5927   25.7553   -9.8342 H           1 GYN       0.0338
     41 H4          3.4662   25.5724   -7.1148 H           1 GYN       0.0553
     42 H5          4.4538   27.8346   -6.8076 H           1 GYN       0.0258
     43 H6          3.6202   27.7370   -8.3638 H           1 GYN       0.0258
     44 H7          5.3883   27.6584   -8.3057 H           1 GYN       0.0258
     45 H8          4.9924   22.8513  -12.6519 H           1 GYN       0.0329
     46 H9          4.3161   23.8323  -11.3833 H           1 GYN       0.0329
     47 H10         4.8921   22.1909  -11.0430 H           1 GYN       0.0329
     48 H11         7.1933   24.4133  -12.9573 H           1 GYN       0.0417
     49 H12         8.3338   26.0605  -11.4257 H           1 GYN       0.0226
     50 H13         9.7315   25.5971  -10.4609 H           1 GYN       0.0226
     51 H14         8.3789   24.4295   -8.8899 H           1 GYN       0.0362
     52 H15         7.5154   25.9180   -9.2536 H           1 GYN       0.0362
     53 H16         7.6819   21.5554  -12.4318 H           1 GYN       0.0252
     54 H17         7.3747   23.8752  -15.3593 H           1 GYN       0.0377
     55 H18         5.7561   23.5962  -14.7276 H           1 GYN       0.0377
     56 H19         6.2991   22.7324  -16.1429 H           1 GYN       0.0377
     57 H20         7.3929   19.9718  -13.9453 H           1 GYN       0.0742
     58 H21         5.4990   19.4392  -14.6328 H           1 GYN       0.2129
     59 H22         7.3500   20.8560  -16.8573 H           1 GYN       0.0312
     60 H23         7.1794   19.2158  -16.2885 H           1 GYN       0.0312
     61 H24         9.3994   19.3432  -16.9642 H           1 GYN       0.0293
     62 H25         9.4494   19.3420  -15.2062 H           1 GYN       0.0293
     63 H26         9.9173   21.7362  -15.1720 H           1 GYN       0.0598
     64 H27        11.7963   19.8890  -16.4436 H           1 GYN       0.0295
     65 H28        12.1361   21.3417  -15.4999 H           1 GYN       0.0295
     66 H29        12.9024   22.2187  -17.4932 H           1 GYN       0.0345
     67 H30        12.2041   21.4748  -19.7609 H           1 GYN       0.0235
     68 H31        11.0313   20.3500  -19.0479 H           1 GYN       0.0235
     69 H32        12.7696   20.1146  -18.7799 H           1 GYN       0.0235
     70 H33        10.5625   23.0743  -18.7235 H           1 GYN       0.0747
     71 H34        11.8004   25.9310  -17.7113 H           1 GYN       0.0376
     72 H35        12.6007   24.5306  -18.4123 H           1 GYN       0.0376
     73 H36        12.9645   24.9921  -16.7497 H           1 GYN       0.0376
     74 H37         9.5733   23.9426  -15.6816 H           1 GYN       0.0245
     75 H38        10.3388   26.5410  -15.5676 H           1 GYN       0.0369
     76 H39        11.6581   25.6697  -14.7913 H           1 GYN       0.0369
     77 H40         8.7350   25.6967  -13.9691 H           1 GYN       0.0520
     78 H41        10.0775   26.4098  -13.1017 H           1 GYN       0.0520
     79 H42        12.3783   22.8257  -11.8253 H           1 GYN       0.0507
     80 H43        11.9134   21.8715  -13.2235 H           1 GYN       0.0507
     81 H44        10.9743   21.1422  -10.8813 H           1 GYN       0.0277
     82 H45         9.8908   21.1550  -12.2633 H           1 GYN       0.0277
     83 H46         8.7955   22.2563  -10.3457 H           1 GYN       0.0210
     84 H47        10.2151   23.2396  -10.0693 H           1 GYN       0.0210
@<TRIPOS>BOND
     1     1     2   2
     2     2     3   1
     3     2     6   1
     4     3     4   1
     5     4     5   1
     6     4     8   1
     7     5     6   1
     8     6     7   1
     9     8     9   2
    10     8    14   1
    11     9    10   1
    12     9    11   1
    13    11    12   1
    14    11    15   1
    15    12    13   1
    16    12    33   1
    17    12    37   1
    18    13    14   1
    19    15    16   2
    20    16    17   1
    21    16    18   1
    22    18    19   1
    23    18    20   1
    24    20    21   1
    25    21    22   1
    26    22    23   1
    27    22    26   1
    28    23    24   1
    29    24    25   1
    30    24    27   1
    31    26    27   1
    32    27    28   1
    33    28    29   1
    34    28    30   2
    35    30    31   1
    36    31    32   1
    37    32    33   1
    38    33    34   2
    39    34    35   1
    40    35    36   1
    41    36    37   1
    42     4    38   1
    43     5    39   1
    44     5    40   1
    45     6    41   1
    46     7    42   1
    47     7    43   1
    48     7    44   1
    49    10    45   1
    50    10    46   1
    51    10    47   1
    52    11    48   1
    53    13    49   1
    54    13    50   1
    55    14    51   1
    56    14    52   1
    57    15    53   1
    58    17    54   1
    59    17    55   1
    60    17    56   1
    61    18    57   1
    62    19    58   1
    63    20    59   1
    64    20    60   1
    65    21    61   1
    66    21    62   1
    67    22    63   1
    68    23    64   1
    69    23    65   1
    70    24    66   1
    71    25    67   1
    72    25    68   1
    73    25    69   1
    74    27    70   1
    75    29    71   1
    76    29    72   1
    77    29    73   1
    78    30    74   1
    79    31    75   1
    80    31    76   1
    81    32    77   1
    82    32    78   1
    83    35    79   1
    84    35    80   1
    85    36    81   1
    86    36    82   1
    87    37    83   1
    88    37    84   1
@<TRIPOS>SUBSTRUCTURE
     1  GYN      2

