@<TRIPOS>MOLECULE
2x00_ligand_024
    84    88
SMALL
GAST_HUCK
****
This file was generated by PARSER (from files_GN.cpp)

@<TRIPOS>ATOM
      1 O6          1.0800   32.4342  -12.2618 O.2         1 GYN      -0.3700
      2 C5          1.8990   31.5471  -11.6597 C.2         1 GYN       0.2385
      3 O1          1.4274   30.5131  -10.9449 O.3         1 GYN      -0.2655
      4 C2          2.4415   29.6363  -10.4435 C.3         1 GYN       0.1059
      5 C3          3.7594   30.2818  -10.9730 C.3         1 GYN       0.0041
      6 C4          3.3548   31.5326  -11.8008 C.3         1 GYN       0.0613
      7 C7          4.0069   32.8480  -11.3140 C.3         1 GYN      -0.0438
      8 C8          2.3860   29.4167   -8.9754 C.2         1 GYN      -0.0559
      9 C13         3.0810   28.4248   -8.3384 C.2         1 GYN      -0.0876
     10 C14         4.1696   27.7408   -9.0672 C.3         1 GYN      -0.0498
     11 C12         2.8720   28.0926   -6.8881 C.3         1 GYN      -0.0250
     12 C27         1.5616   28.7264   -6.2287 C.3         1 GYN       0.0148
     13 C10         1.5415   30.2229   -6.6944 C.3         1 GYN      -0.0494
     14 C9          1.5185   30.3431   -8.2341 C.3         1 GYN      -0.0395
     15 C15         2.9688   26.6312   -6.6457 C.2         1 GYN      -0.1023
     16 C16         3.9750   25.9127   -6.0804 C.2         1 GYN      -0.0548
     17 C19         5.1289   26.5892   -5.4734 C.3         1 GYN      -0.0377
     18 C17         4.0566   24.4502   -6.3126 C.3         1 GYN       0.0804
     19 O20         5.0914   24.2566   -7.2818 O.3         1 GYN      -0.3807
     20 C18         4.3228   23.4980   -5.0999 C.3         1 GYN      -0.0158
     21 C21         3.1080   23.1196   -4.2127 C.3         1 GYN      -0.0223
     22 C43         2.5533   24.2475   -3.3091 C.3         1 GYN       0.0623
     23 C47         1.4374   23.7783   -2.3613 C.3         1 GYN      -0.0197
     24 C48         1.4445   24.8721   -1.2810 C.3         1 GYN      -0.0066
     25 C49         0.8998   24.3900    0.0875 C.3         1 GYN      -0.0582
     26 O43         3.5672   24.7728   -2.4354 O.3         1 GYN      -0.3622
     27 C37         2.9304   25.3432   -1.2711 C.3         1 GYN       0.0865
     28 C36         3.0575   26.8114   -1.1881 C.2         1 GYN      -0.0553
     29 C38         3.0787   27.4570    0.1232 C.3         1 GYN      -0.0379
     30 C35         3.0030   27.5424   -2.3193 C.2         1 GYN      -0.1039
     31 C34         2.7913   28.9803   -2.4377 C.3         1 GYN      -0.0315
     32 C33         2.5680   29.4610   -3.9095 C.3         1 GYN       0.0100
     33 C32         1.5736   28.7319   -4.7258 C.2         1 GYN       0.0383
     34 N31         0.6214   28.1893   -4.0460 N.2         1 GYN      -0.2722
     35 C30        -0.4700   27.4236   -4.4355 C.3         1 GYN       0.0432
     36 C46        -0.3281   26.9020   -5.8782 C.3         1 GYN      -0.0375
     37 C28         0.2315   28.0353   -6.7714 C.3         1 GYN      -0.0530
     38 H1          2.2561   28.6918  -10.9608 H           1 GYN       0.0753
     39 H2          4.2932   29.5756  -11.6155 H           1 GYN       0.0338
     40 H3          4.4270   30.5588  -10.1541 H           1 GYN       0.0338
     41 H4          3.5944   31.3793  -12.8568 H           1 GYN       0.0553
     42 H5          3.6767   33.6845  -11.9304 H           1 GYN       0.0258
     43 H6          5.0944   32.7689  -11.3920 H           1 GYN       0.0258
     44 H7          3.7458   33.0510  -10.2724 H           1 GYN       0.0258
     45 H8          4.8941   28.4653   -9.4400 H           1 GYN       0.0329
     46 H9          3.7651   27.1727   -9.9060 H           1 GYN       0.0329
     47 H10         4.7415   27.0422   -8.4693 H           1 GYN       0.0329
     48 H11         3.7257   28.5778   -6.4194 H           1 GYN       0.0417
     49 H12         2.4281   30.7506   -6.3377 H           1 GYN       0.0226
     50 H13         0.6743   30.7491   -6.2839 H           1 GYN       0.0226
     51 H14         0.4892   30.1952   -8.5707 H           1 GYN       0.0362
     52 H15         1.7978   31.3672   -8.4834 H           1 GYN       0.0362
     53 H16         2.2726   26.1051   -7.1166 H           1 GYN       0.0252
     54 H17         5.6285   27.2017   -6.2206 H           1 GYN       0.0377
     55 H18         5.8804   25.9060   -5.0862 H           1 GYN       0.0377
     56 H19         4.8164   27.2292   -4.6545 H           1 GYN       0.0377
     57 H20         3.1457   24.0828   -6.7901 H           1 GYN       0.0742
     58 H21         4.9843   23.3326   -7.6177 H           1 GYN       0.2129
     59 H22         5.1226   23.8822   -4.4649 H           1 GYN       0.0312
     60 H23         4.6899   22.5537   -5.5102 H           1 GYN       0.0312
     61 H24         3.4307   22.3028   -3.5606 H           1 GYN       0.0293
     62 H25         2.3033   22.7378   -4.8449 H           1 GYN       0.0293
     63 H26         2.1643   25.0424   -3.9507 H           1 GYN       0.0598
     64 H27         1.6814   22.8023   -1.9308 H           1 GYN       0.0295
     65 H28         0.4774   23.7153   -2.8774 H           1 GYN       0.0295
     66 H29         0.7942   25.6829   -1.6298 H           1 GYN       0.0345
     67 H30         0.9084   25.2141    0.8035 H           1 GYN       0.0235
     68 H31         1.5099   23.5749    0.4835 H           1 GYN       0.0235
     69 H32        -0.1276   24.0379   -0.0231 H           1 GYN       0.0235
     70 H33         3.4560   24.8898   -0.4283 H           1 GYN       0.0747
     71 H34         3.9570   28.0995    0.1981 H           1 GYN       0.0376
     72 H35         3.1226   26.7387    0.9429 H           1 GYN       0.0376
     73 H36         2.1815   28.0617    0.2625 H           1 GYN       0.0376
     74 H37         3.0201   27.0489   -3.1738 H           1 GYN       0.0245
     75 H38         3.6524   29.5068   -2.0158 H           1 GYN       0.0369
     76 H39         1.9077   29.2566   -1.8568 H           1 GYN       0.0369
     77 H40         3.5430   29.4338   -4.3914 H           1 GYN       0.0520
     78 H41         2.2658   30.5087   -3.8711 H           1 GYN       0.0520
     79 H42        -1.3706   28.0335   -4.3389 H           1 GYN       0.0507
     80 H43        -0.5594   26.5765   -3.7549 H           1 GYN       0.0507
     81 H44        -1.3022   26.5725   -6.2501 H           1 GYN       0.0277
     82 H45         0.3377   26.0398   -5.8828 H           1 GYN       0.0277
     83 H46         0.3760   27.6396   -7.7793 H           1 GYN       0.0210
     84 H47        -0.5737   28.7723   -6.8437 H           1 GYN       0.0210
@<TRIPOS>BOND
     1     1     2   2
     2     2     3   1
     3     2     6   1
     4     3     4   1
     5     4     5   1
     6     4     8   1
     7     5     6   1
     8     6     7   1
     9     8     9   2
    10     8    14   1
    11     9    10   1
    12     9    11   1
    13    11    12   1
    14    11    15   1
    15    12    13   1
    16    12    33   1
    17    12    37   1
    18    13    14   1
    19    15    16   2
    20    16    17   1
    21    16    18   1
    22    18    19   1
    23    18    20   1
    24    20    21   1
    25    21    22   1
    26    22    23   1
    27    22    26   1
    28    23    24   1
    29    24    25   1
    30    24    27   1
    31    26    27   1
    32    27    28   1
    33    28    29   1
    34    28    30   2
    35    30    31   1
    36    31    32   1
    37    32    33   1
    38    33    34   2
    39    34    35   1
    40    35    36   1
    41    36    37   1
    42     4    38   1
    43     5    39   1
    44     5    40   1
    45     6    41   1
    46     7    42   1
    47     7    43   1
    48     7    44   1
    49    10    45   1
    50    10    46   1
    51    10    47   1
    52    11    48   1
    53    13    49   1
    54    13    50   1
    55    14    51   1
    56    14    52   1
    57    15    53   1
    58    17    54   1
    59    17    55   1
    60    17    56   1
    61    18    57   1
    62    19    58   1
    63    20    59   1
    64    20    60   1
    65    21    61   1
    66    21    62   1
    67    22    63   1
    68    23    64   1
    69    23    65   1
    70    24    66   1
    71    25    67   1
    72    25    68   1
    73    25    69   1
    74    27    70   1
    75    29    71   1
    76    29    72   1
    77    29    73   1
    78    30    74   1
    79    31    75   1
    80    31    76   1
    81    32    77   1
    82    32    78   1
    83    35    79   1
    84    35    80   1
    85    36    81   1
    86    36    82   1
    87    37    83   1
    88    37    84   1
@<TRIPOS>SUBSTRUCTURE
     1  GYN      2

