@<TRIPOS>MOLECULE
2x00_ligand_009
    84    88
SMALL
GAST_HUCK
****
This file was generated by PARSER (from files_GN.cpp)

@<TRIPOS>ATOM
      1 O6          8.1387   26.2347   -5.5364 O.2         1 GYN      -0.3700
      2 C5          7.4694   25.5822   -6.5128 C.2         1 GYN       0.2385
      3 O1          8.0722   25.1601   -7.6385 O.3         1 GYN      -0.2655
      4 C2          7.1980   24.4534   -8.5183 C.3         1 GYN       0.1059
      5 C3          5.8333   24.4488   -7.7679 C.3         1 GYN       0.0041
      6 C4          6.0633   25.1919   -6.4253 C.3         1 GYN       0.0613
      7 C7          5.1273   26.4067   -6.2013 C.3         1 GYN      -0.0438
      8 C8          7.1566   25.0359   -9.8819 C.2         1 GYN      -0.0559
      9 C13         6.8843   24.2992  -10.9993 C.2         1 GYN      -0.0876
     10 C14         6.2090   22.9956  -10.8475 C.3         1 GYN      -0.0498
     11 C12         7.1041   24.8235  -12.3898 C.3         1 GYN      -0.0250
     12 C27         7.8131   26.2602  -12.4816 C.3         1 GYN       0.0148
     13 C10         7.1353   27.1142  -11.3535 C.3         1 GYN      -0.0494
     14 C9          7.3457   26.4908   -9.9570 C.3         1 GYN      -0.0395
     15 C15         7.7874   23.7844  -13.1932 C.2         1 GYN      -0.1023
     16 C16         7.3073   23.0023  -14.1947 C.2         1 GYN      -0.0548
     17 C19         5.9521   23.1748  -14.7252 C.3         1 GYN      -0.0377
     18 C17         8.0760   21.8051  -14.6072 C.3         1 GYN       0.0804
     19 O20         7.3189   20.6823  -14.1466 O.3         1 GYN      -0.3807
     20 C18         8.4116   21.6286  -16.1233 C.3         1 GYN      -0.0158
     21 C21         9.5412   22.5317  -16.6974 C.3         1 GYN      -0.0223
     22 C43         9.1511   24.0146  -16.9232 C.3         1 GYN       0.0623
     23 C47        10.2448   24.8816  -17.5899 C.3         1 GYN      -0.0197
     24 C48         9.5628   25.4948  -18.8341 C.3         1 GYN      -0.0066
     25 C49        10.0051   24.8062  -20.1562 C.3         1 GYN      -0.0582
     26 O43         7.9909   24.0970  -17.7732 O.3         1 GYN      -0.3622
     27 C37         8.0464   25.3115  -18.5435 C.3         1 GYN       0.0865
     28 C36         7.3891   26.5016  -17.9538 C.2         1 GYN      -0.0553
     29 C38         7.2014   27.6826  -18.7938 C.3         1 GYN      -0.0379
     30 C35         6.9562   26.4934  -16.6747 C.2         1 GYN      -0.1039
     31 C34         6.3419   27.5782  -15.9247 C.3         1 GYN      -0.0315
     32 C33         6.3134   27.3159  -14.3826 C.3         1 GYN       0.0100
     33 C32         7.6167   27.0461  -13.7478 C.2         1 GYN       0.0383
     34 N31         8.5373   27.8555  -14.1587 N.2         1 GYN      -0.2722
     35 C30         9.8269   28.1155  -13.7032 C.3         1 GYN       0.0432
     36 C46        10.1333   27.4695  -12.3327 C.3         1 GYN      -0.0375
     37 C28         9.3801   26.1227  -12.2351 C.3         1 GYN      -0.0530
     38 H1          7.6065   23.4393   -8.5461 H           1 GYN       0.0753
     39 H2          5.5180   23.4183   -7.5738 H           1 GYN       0.0338
     40 H3          5.0451   24.9261   -8.3591 H           1 GYN       0.0338
     41 H4          5.9535   24.4969   -5.5881 H           1 GYN       0.0553
     42 H5          5.3678   26.9003   -5.2576 H           1 GYN       0.0258
     43 H6          4.0905   26.0687   -6.1585 H           1 GYN       0.0258
     44 H7          5.2254   27.1321   -7.0111 H           1 GYN       0.0258
     45 H8          5.3823   23.0612  -10.1389 H           1 GYN       0.0329
     46 H9          6.9146   22.2363  -10.5061 H           1 GYN       0.0329
     47 H10         5.7689   22.6368  -11.7728 H           1 GYN       0.0329
     48 H11         6.0920   24.9437  -12.7630 H           1 GYN       0.0417
     49 H12         6.0549   27.1685  -11.5311 H           1 GYN       0.0226
     50 H13         7.5017   28.1448  -11.3393 H           1 GYN       0.0226
     51 H14         8.3520   26.7426   -9.6134 H           1 GYN       0.0362
     52 H15         6.6450   26.9816   -9.2761 H           1 GYN       0.0362
     53 H16         8.6863   23.5435  -12.8471 H           1 GYN       0.0252
     54 H17         5.2155   22.9868  -13.9472 H           1 GYN       0.0377
     55 H18         5.7235   22.4919  -15.5438 H           1 GYN       0.0377
     56 H19         5.7984   24.1828  -15.0964 H           1 GYN       0.0377
     57 H20         9.0339   21.7377  -14.0815 H           1 GYN       0.0742
     58 H21         7.8026   19.8862  -14.4543 H           1 GYN       0.2129
     59 H22         7.5152   21.7294  -16.7363 H           1 GYN       0.0312
     60 H23         8.7539   20.5974  -16.2558 H           1 GYN       0.0312
     61 H24         9.8486   22.1137  -17.6606 H           1 GYN       0.0293
     62 H25        10.4066   22.4903  -16.0304 H           1 GYN       0.0293
     63 H26         8.9283   24.4414  -15.9440 H           1 GYN       0.0598
     64 H27        11.1346   24.3018  -17.8485 H           1 GYN       0.0295
     65 H28        10.5532   25.6782  -16.9051 H           1 GYN       0.0295
     66 H29         9.8327   26.5531  -18.9146 H           1 GYN       0.0345
     67 H30         9.4840   25.2559  -21.0034 H           1 GYN       0.0235
     68 H31         9.7810   23.7377  -20.1331 H           1 GYN       0.0235
     69 H32        11.0779   24.9380  -20.3072 H           1 GYN       0.0235
     70 H33         7.5015   25.0887  -19.4651 H           1 GYN       0.0747
     71 H34         6.1412   27.9402  -18.8474 H           1 GYN       0.0376
     72 H35         7.5529   27.5256  -19.8161 H           1 GYN       0.0376
     73 H36         7.7533   28.5298  -18.3824 H           1 GYN       0.0376
     74 H37         7.0833   25.6666  -16.1643 H           1 GYN       0.0245
     75 H38         5.3203   27.7123  -16.2860 H           1 GYN       0.0369
     76 H39         6.8820   28.5103  -16.1051 H           1 GYN       0.0369
     77 H40         5.6132   26.5049  -14.2082 H           1 GYN       0.0520
     78 H41         5.8859   28.2015  -13.9047 H           1 GYN       0.0520
     79 H42         9.9561   29.1968  -13.6279 H           1 GYN       0.0507
     80 H43        10.5274   27.7422  -14.4540 H           1 GYN       0.0507
     81 H44         9.8272   28.1340  -11.5226 H           1 GYN       0.0277
     82 H45        11.2085   27.3120  -12.2360 H           1 GYN       0.0277
     83 H46         9.8235   25.4883  -13.0068 H           1 GYN       0.0210
     84 H47         9.6069   25.6500  -11.2778 H           1 GYN       0.0210
@<TRIPOS>BOND
     1     1     2   2
     2     2     3   1
     3     2     6   1
     4     3     4   1
     5     4     5   1
     6     4     8   1
     7     5     6   1
     8     6     7   1
     9     8     9   2
    10     8    14   1
    11     9    10   1
    12     9    11   1
    13    11    12   1
    14    11    15   1
    15    12    13   1
    16    12    33   1
    17    12    37   1
    18    13    14   1
    19    15    16   2
    20    16    17   1
    21    16    18   1
    22    18    19   1
    23    18    20   1
    24    20    21   1
    25    21    22   1
    26    22    23   1
    27    22    26   1
    28    23    24   1
    29    24    25   1
    30    24    27   1
    31    26    27   1
    32    27    28   1
    33    28    29   1
    34    28    30   2
    35    30    31   1
    36    31    32   1
    37    32    33   1
    38    33    34   2
    39    34    35   1
    40    35    36   1
    41    36    37   1
    42     4    38   1
    43     5    39   1
    44     5    40   1
    45     6    41   1
    46     7    42   1
    47     7    43   1
    48     7    44   1
    49    10    45   1
    50    10    46   1
    51    10    47   1
    52    11    48   1
    53    13    49   1
    54    13    50   1
    55    14    51   1
    56    14    52   1
    57    15    53   1
    58    17    54   1
    59    17    55   1
    60    17    56   1
    61    18    57   1
    62    19    58   1
    63    20    59   1
    64    20    60   1
    65    21    61   1
    66    21    62   1
    67    22    63   1
    68    23    64   1
    69    23    65   1
    70    24    66   1
    71    25    67   1
    72    25    68   1
    73    25    69   1
    74    27    70   1
    75    29    71   1
    76    29    72   1
    77    29    73   1
    78    30    74   1
    79    31    75   1
    80    31    76   1
    81    32    77   1
    82    32    78   1
    83    35    79   1
    84    35    80   1
    85    36    81   1
    86    36    82   1
    87    37    83   1
    88    37    84   1
@<TRIPOS>SUBSTRUCTURE
     1  GYN      2

