@<TRIPOS>MOLECULE
2x00_ligand_053
    84    88
SMALL
GAST_HUCK
****
This file was generated by PARSER (from files_GN.cpp)

@<TRIPOS>ATOM
      1 O6         -1.2321   33.8989   -8.4725 O.2         1 GYN      -0.3700
      2 C5         -0.9365   32.6752   -8.9751 C.2         1 GYN       0.2385
      3 O1         -1.3441   31.5286   -8.3957 O.3         1 GYN      -0.2655
      4 C2         -0.9784   30.3309   -9.0857 C.3         1 GYN       0.1059
      5 C3         -0.2997   30.9103  -10.3745 C.3         1 GYN       0.0041
      6 C4         -0.1944   32.4501  -10.2066 C.3         1 GYN       0.0613
      7 C7          1.2635   32.9653  -10.0847 C.3         1 GYN      -0.0438
      8 C8         -0.2495   29.2879   -8.3077 C.2         1 GYN      -0.0559
      9 C13        -0.2713   29.1664   -6.9375 C.2         1 GYN      -0.0876
     10 C14        -1.2828   29.9024   -6.1599 C.3         1 GYN      -0.0498
     11 C12         0.5473   28.1463   -6.2042 C.3         1 GYN      -0.0250
     12 C27         1.6442   27.3849   -7.0871 C.3         1 GYN       0.0148
     13 C10         0.8668   26.9613   -8.3812 C.3         1 GYN      -0.0494
     14 C9          0.3060   28.1871   -9.1331 C.3         1 GYN      -0.0395
     15 C15         1.1174   28.7379   -4.9722 C.2         1 GYN      -0.1023
     16 C16         0.8005   28.5095   -3.6730 C.2         1 GYN      -0.0548
     17 C19        -0.1375   27.4581   -3.2687 C.3         1 GYN      -0.0377
     18 C17         1.3066   29.4244   -2.6265 C.3         1 GYN       0.0804
     19 O20         0.1867   30.0730   -2.0171 O.3         1 GYN      -0.3807
     20 C18         2.2076   28.7997   -1.5149 C.3         1 GYN      -0.0158
     21 C21         3.7085   28.6253   -1.8807 C.3         1 GYN      -0.0223
     22 C43         4.0322   27.3794   -2.7442 C.3         1 GYN       0.0623
     23 C47         5.5023   27.3152   -3.2126 C.3         1 GYN      -0.0197
     24 C48         5.9538   25.8745   -2.8895 C.3         1 GYN      -0.0066
     25 C49         6.9851   25.8150   -1.7292 C.3         1 GYN      -0.0582
     26 O43         3.8064   26.1800   -1.9868 O.3         1 GYN      -0.3622
     27 C37         4.6285   25.1340   -2.5354 C.3         1 GYN       0.0865
     28 C36         4.0316   24.3433   -3.6342 C.2         1 GYN      -0.0553
     29 C38         4.8362   23.2745   -4.2257 C.3         1 GYN      -0.0379
     30 C35         2.7413   24.5173   -3.9975 C.2         1 GYN      -0.1039
     31 C34         2.0470   23.9293   -5.1376 C.3         1 GYN      -0.0315
     32 C33         1.3723   25.0010   -6.0405 C.3         1 GYN       0.0100
     33 C32         2.2090   26.1145   -6.5244 C.2         1 GYN       0.0383
     34 N31         3.4234   25.7659   -6.7868 N.2         1 GYN      -0.2722
     35 C30         4.4539   26.4222   -7.4617 C.3         1 GYN       0.0432
     36 C46         3.9781   27.6694   -8.2385 C.3         1 GYN      -0.0375
     37 C28         2.8535   28.3586   -7.4294 C.3         1 GYN      -0.0530
     38 H1         -1.9359   29.8809   -9.3660 H           1 GYN       0.0753
     39 H2         -0.9280   30.6793  -11.2407 H           1 GYN       0.0338
     40 H3          0.6871   30.4907  -10.5793 H           1 GYN       0.0338
     41 H4         -0.6931   32.9635  -11.0353 H           1 GYN       0.0553
     42 H5          1.2729   34.0444   -9.9212 H           1 GYN       0.0258
     43 H6          1.8154   32.7510  -11.0031 H           1 GYN       0.0258
     44 H7          1.7727   32.4793   -9.2483 H           1 GYN       0.0258
     45 H8         -1.4280   29.5113   -5.1479 H           1 GYN       0.0329
     46 H9         -2.2576   29.8416   -6.6409 H           1 GYN       0.0329
     47 H10        -0.9803   30.9425   -6.0487 H           1 GYN       0.0329
     48 H11        -0.1999   27.4059   -5.9195 H           1 GYN       0.0417
     49 H12         0.0147   26.3295   -8.1130 H           1 GYN       0.0226
     50 H13         1.4928   26.3703   -9.0611 H           1 GYN       0.0226
     51 H14         1.1261   28.5544   -9.7468 H           1 GYN       0.0362
     52 H15        -0.4649   27.8142   -9.8128 H           1 GYN       0.0362
     53 H16         1.7281   29.5008   -5.1478 H           1 GYN       0.0252
     54 H17        -1.1010   27.5789   -3.7645 H           1 GYN       0.0377
     55 H18        -0.3363   27.4532   -2.1971 H           1 GYN       0.0377
     56 H19         0.2678   26.4837   -3.5158 H           1 GYN       0.0377
     57 H20         1.8790   30.2452   -3.0671 H           1 GYN       0.0742
     58 H21        -0.2227   29.4095   -1.4232 H           1 GYN       0.2129
     59 H22         1.7995   27.8474   -1.1719 H           1 GYN       0.0312
     60 H23         2.1805   29.4743   -0.6527 H           1 GYN       0.0312
     61 H24         4.2758   28.5409   -0.9499 H           1 GYN       0.0293
     62 H25         4.0613   29.5245   -2.3921 H           1 GYN       0.0293
     63 H26         3.3825   27.3741   -3.6224 H           1 GYN       0.0598
     64 H27         6.1290   28.0588   -2.7127 H           1 GYN       0.0295
     65 H28         5.5581   27.5030   -4.2883 H           1 GYN       0.0295
     66 H29         6.4392   25.4493   -3.7727 H           1 GYN       0.0345
     67 H30         7.2721   24.7794   -1.5407 H           1 GYN       0.0235
     68 H31         6.5645   26.2334   -0.8123 H           1 GYN       0.0235
     69 H32         7.8836   26.3760   -1.9933 H           1 GYN       0.0235
     70 H33         4.7963   24.4231   -1.7237 H           1 GYN       0.0747
     71 H34         4.2943   22.3301   -4.1669 H           1 GYN       0.0376
     72 H35         5.7872   23.1257   -3.7101 H           1 GYN       0.0376
     73 H36         5.0543   23.4994   -5.2718 H           1 GYN       0.0376
     74 H37         2.1815   25.1175   -3.4452 H           1 GYN       0.0245
     75 H38         1.2732   23.2572   -4.7555 H           1 GYN       0.0369
     76 H39         2.7067   23.3264   -5.7628 H           1 GYN       0.0369
     77 H40         0.5097   25.3763   -5.5011 H           1 GYN       0.0520
     78 H41         0.9786   24.4820   -6.9164 H           1 GYN       0.0520
     79 H42         4.9165   25.7204   -8.1589 H           1 GYN       0.0507
     80 H43         5.2063   26.7099   -6.7244 H           1 GYN       0.0507
     81 H44         3.6122   27.3849   -9.2277 H           1 GYN       0.0277
     82 H45         4.8153   28.3559   -8.3847 H           1 GYN       0.0277
     83 H46         3.3273   28.7036   -6.5076 H           1 GYN       0.0210
     84 H47         2.5283   29.2523   -7.9639 H           1 GYN       0.0210
@<TRIPOS>BOND
     1     1     2   2
     2     2     3   1
     3     2     6   1
     4     3     4   1
     5     4     5   1
     6     4     8   1
     7     5     6   1
     8     6     7   1
     9     8     9   2
    10     8    14   1
    11     9    10   1
    12     9    11   1
    13    11    12   1
    14    11    15   1
    15    12    13   1
    16    12    33   1
    17    12    37   1
    18    13    14   1
    19    15    16   2
    20    16    17   1
    21    16    18   1
    22    18    19   1
    23    18    20   1
    24    20    21   1
    25    21    22   1
    26    22    23   1
    27    22    26   1
    28    23    24   1
    29    24    25   1
    30    24    27   1
    31    26    27   1
    32    27    28   1
    33    28    29   1
    34    28    30   2
    35    30    31   1
    36    31    32   1
    37    32    33   1
    38    33    34   2
    39    34    35   1
    40    35    36   1
    41    36    37   1
    42     4    38   1
    43     5    39   1
    44     5    40   1
    45     6    41   1
    46     7    42   1
    47     7    43   1
    48     7    44   1
    49    10    45   1
    50    10    46   1
    51    10    47   1
    52    11    48   1
    53    13    49   1
    54    13    50   1
    55    14    51   1
    56    14    52   1
    57    15    53   1
    58    17    54   1
    59    17    55   1
    60    17    56   1
    61    18    57   1
    62    19    58   1
    63    20    59   1
    64    20    60   1
    65    21    61   1
    66    21    62   1
    67    22    63   1
    68    23    64   1
    69    23    65   1
    70    24    66   1
    71    25    67   1
    72    25    68   1
    73    25    69   1
    74    27    70   1
    75    29    71   1
    76    29    72   1
    77    29    73   1
    78    30    74   1
    79    31    75   1
    80    31    76   1
    81    32    77   1
    82    32    78   1
    83    35    79   1
    84    35    80   1
    85    36    81   1
    86    36    82   1
    87    37    83   1
    88    37    84   1
@<TRIPOS>SUBSTRUCTURE
     1  GYN      2

