@<TRIPOS>MOLECULE
2x0y_ligand_004
    32    33
SMALL
GAST_HUCK
****
This file was generated by PARSER (from files_GN.cpp)

@<TRIPOS>ATOM
      1 CAB        29.8344   51.4924   17.0096 C.3         1 X0T       0.0446
      2 N3         30.8340   51.8229   18.0041 N.am        1 X0T      -0.2025
      3 C2         30.7641   52.8863   18.8338 C.2         1 X0T       0.3177
      4 O2         29.7972   53.6312   18.7505 O.2         1 X0T      -0.3873
      5 N1         31.7362   53.1482   19.7486 N.am        1 X0T      -0.1740
      6 CAA        31.6450   54.2865   20.6572 C.3         1 X0T       0.0477
      7 C6         32.8178   52.3437   19.8372 C.2         1 X0T       0.2297
      8 O6         33.7329   52.6000   20.6089 O.2         1 X0T      -0.4007
      9 C5         32.9485   51.2250   19.0203 C.2         1 X0T       0.1627
     10 C4         31.9273   50.9955   18.1030 C.2         1 X0T       0.1377
     11 N9         32.2334   49.9025   17.3908 N.2         1 X0T      -0.2858
     12 C8         33.4130   49.4615   17.8497 C.2         1 X0T       0.0978
     13 N7         33.8713   50.2504   18.8491 N.pl3       1 X0T      -0.2487
     14 CAI        35.1425   50.0400   19.4978 C.3         1 X0T       0.0817
     15 CAO        35.0757   49.2057   20.8153 C.3         1 X0T       0.1052
     16 OAF        34.1284   48.1428   20.7104 O.3         1 X0T      -0.3868
     17 CAH        34.7501   50.0355   22.0724 C.3         1 X0T       0.0728
     18 OAE        35.7747   51.0065   22.2739 O.3         1 X0T      -0.3924
     19 H1         28.9914   52.1854   16.9814 H           1 X0T       0.0548
     20 H2         29.4311   50.4960   17.2087 H           1 X0T       0.0548
     21 H3         30.2889   51.4928   16.0160 H           1 X0T       0.0548
     22 H4         30.7622   54.9101   20.5168 H           1 X0T       0.0539
     23 H5         32.5144   54.9376   20.5308 H           1 X0T       0.0539
     24 H6         31.6220   53.9300   21.6917 H           1 X0T       0.0539
     25 H7         33.8893   48.6382   17.4790 H           1 X0T       0.1263
     26 H8         35.6261   51.0003   19.6716 H           1 X0T       0.0638
     27 H9         35.8091   49.5048   18.8105 H           1 X0T       0.0638
     28 H10        36.0565   48.7487   20.9806 H           1 X0T       0.0644
     29 H11        34.5220   47.5537   20.0270 H           1 X0T       0.2100
     30 H12        34.6889   49.3934   22.9509 H           1 X0T       0.0584
     31 H13        33.7858   50.5197   21.9670 H           1 X0T       0.0584
     32 H14        35.4253   51.6409   22.9346 H           1 X0T       0.2095
@<TRIPOS>BOND
     1     1     2   1
     2     2     3  am
     3     2    10   1
     4     3     4   2
     5     3     5  am
     6     5     6   1
     7     5     7  am
     8     7     8   2
     9     7     9   1
    10     9    10   2
    11     9    13   1
    12    10    11   1
    13    11    12   2
    14    12    13   1
    15    13    14   1
    16    14    15   1
    17    15    16   1
    18    15    17   1
    19    17    18   1
    20     1    19   1
    21     1    20   1
    22     1    21   1
    23     6    22   1
    24     6    23   1
    25     6    24   1
    26    12    25   1
    27    14    26   1
    28    14    27   1
    29    15    28   1
    30    16    29   1
    31    17    30   1
    32    17    31   1
    33    18    32   1
@<TRIPOS>SUBSTRUCTURE
     1  X0T      1

