@<TRIPOS>MOLECULE
2x0y_ligand_016
    32    33
SMALL
GAST_HUCK
****
This file was generated by PARSER (from files_GN.cpp)

@<TRIPOS>ATOM
      1 CAB        34.4983   43.2105   22.1204 C.3         1 X0T       0.0446
      2 N3         35.2542   44.4454   22.1432 N.am        1 X0T      -0.2025
      3 C2         36.4967   44.5767   22.6553 C.2         1 X0T       0.3177
      4 O2         37.0223   43.5858   23.1548 O.2         1 X0T      -0.3873
      5 N1         37.1723   45.7564   22.6213 N.am        1 X0T      -0.1740
      6 CAA        38.5147   45.8862   23.1665 C.3         1 X0T       0.0477
      7 C6         36.6026   46.8521   22.0659 C.2         1 X0T       0.2297
      8 O6         37.1956   47.9196   21.9741 O.2         1 X0T      -0.4007
      9 C5         35.3157   46.7983   21.5546 C.2         1 X0T       0.1627
     10 C4         34.6661   45.5680   21.6002 C.2         1 X0T       0.1377
     11 N9         33.4493   45.7165   21.0616 N.2         1 X0T      -0.2858
     12 C8         33.3425   47.0009   20.6937 C.2         1 X0T       0.0978
     13 N7         34.4668   47.6889   20.9891 N.pl3       1 X0T      -0.2487
     14 CAI        34.6018   49.1065   20.7587 C.3         1 X0T       0.0817
     15 CAO        34.5076   49.5147   19.2524 C.3         1 X0T       0.1052
     16 OAF        35.7890   49.9364   18.7847 O.3         1 X0T      -0.3868
     17 CAH        33.4698   50.6306   18.9617 C.3         1 X0T       0.0728
     18 OAE        33.1567   50.7152   17.5730 O.3         1 X0T      -0.3924
     19 H1         35.0264   42.3643   22.5598 H           1 X0T       0.0548
     20 H2         34.2606   42.9429   21.0887 H           1 X0T       0.0548
     21 H3         33.5664   43.3351   22.6752 H           1 X0T       0.0548
     22 H4         38.9153   44.9710   23.6020 H           1 X0T       0.0539
     23 H5         38.5200   46.6432   23.9525 H           1 X0T       0.0539
     24 H6         39.2019   46.1967   22.3777 H           1 X0T       0.0539
     25 H7         32.5074   47.3995   20.2695 H           1 X0T       0.1263
     26 H8         35.5454   49.4792   21.1583 H           1 X0T       0.0638
     27 H9         33.8183   49.6085   21.3323 H           1 X0T       0.0638
     28 H10        34.2280   48.6434   18.6632 H           1 X0T       0.0644
     29 H11        36.3744   49.1699   18.9436 H           1 X0T       0.2100
     30 H12        33.8541   51.5922   19.2978 H           1 X0T       0.0584
     31 H13        32.5394   50.4244   19.4936 H           1 X0T       0.0584
     32 H14        33.9860   50.9943   17.1350 H           1 X0T       0.2095
@<TRIPOS>BOND
     1     1     2   1
     2     2     3  am
     3     2    10   1
     4     3     4   2
     5     3     5  am
     6     5     6   1
     7     5     7  am
     8     7     8   2
     9     7     9   1
    10     9    10   2
    11     9    13   1
    12    10    11   1
    13    11    12   2
    14    12    13   1
    15    13    14   1
    16    14    15   1
    17    15    16   1
    18    15    17   1
    19    17    18   1
    20     1    19   1
    21     1    20   1
    22     1    21   1
    23     6    22   1
    24     6    23   1
    25     6    24   1
    26    12    25   1
    27    14    26   1
    28    14    27   1
    29    15    28   1
    30    16    29   1
    31    17    30   1
    32    17    31   1
    33    18    32   1
@<TRIPOS>SUBSTRUCTURE
     1  X0T      1

