@<TRIPOS>MOLECULE
2x0y_ligand_005
    32    33
SMALL
GAST_HUCK
****
This file was generated by PARSER (from files_GN.cpp)

@<TRIPOS>ATOM
      1 CAB        32.3470   44.2505   22.7285 C.3         1 X0T       0.0446
      2 N3         33.7218   44.6925   22.6373 N.am        1 X0T      -0.2025
      3 C2         34.1011   45.9678   22.4068 C.2         1 X0T       0.3177
      4 O2         33.2308   46.8092   22.2137 O.2         1 X0T      -0.3873
      5 N1         35.4061   46.3404   22.3667 N.am        1 X0T      -0.1740
      6 CAA        35.7964   47.7299   22.1590 C.3         1 X0T       0.0477
      7 C6         36.3816   45.4154   22.5304 C.2         1 X0T       0.2297
      8 O6         37.5641   45.7244   22.4656 O.2         1 X0T      -0.4007
      9 C5         36.0628   44.0773   22.7552 C.2         1 X0T       0.1627
     10 C4         34.7095   43.7489   22.7908 C.2         1 X0T       0.1377
     11 N9         34.5973   42.4182   22.9285 N.2         1 X0T      -0.2858
     12 C8         35.8444   41.9356   22.9742 C.2         1 X0T       0.0978
     13 N7         36.7635   42.9251   22.8970 N.pl3       1 X0T      -0.2487
     14 CAI        38.1865   42.7081   22.7838 C.3         1 X0T       0.0817
     15 CAO        38.8105   41.6211   23.7201 C.3         1 X0T       0.1052
     16 OAF        39.4842   42.2255   24.8250 O.3         1 X0T      -0.3868
     17 CAH        39.7907   40.6696   22.9906 C.3         1 X0T       0.0728
     18 OAE        39.0706   39.8697   22.0573 O.3         1 X0T      -0.3924
     19 H1         31.6161   45.0527   22.6090 H           1 X0T       0.0548
     20 H2         32.1722   43.7955   23.7070 H           1 X0T       0.0548
     21 H3         32.1450   43.5066   21.9542 H           1 X0T       0.0548
     22 H4         34.9633   48.4247   22.0386 H           1 X0T       0.0539
     23 H5         36.4134   47.8171   21.2628 H           1 X0T       0.0539
     24 H6         36.3773   48.0784   23.0153 H           1 X0T       0.0539
     25 H7         36.0440   40.9371   23.0306 H           1 X0T       0.1263
     26 H8         38.7315   43.6342   22.9601 H           1 X0T       0.0638
     27 H9         38.3639   42.4411   21.7396 H           1 X0T       0.0638
     28 H10        38.0277   40.9955   24.1441 H           1 X0T       0.0644
     29 H11        40.2379   42.7150   24.4356 H           1 X0T       0.2100
     30 H12        40.2660   40.0104   23.7176 H           1 X0T       0.0584
     31 H13        40.5644   41.2356   22.4665 H           1 X0T       0.0584
     32 H14        39.6779   39.1509   21.7893 H           1 X0T       0.2095
@<TRIPOS>BOND
     1     1     2   1
     2     2     3  am
     3     2    10   1
     4     3     4   2
     5     3     5  am
     6     5     6   1
     7     5     7  am
     8     7     8   2
     9     7     9   1
    10     9    10   2
    11     9    13   1
    12    10    11   1
    13    11    12   2
    14    12    13   1
    15    13    14   1
    16    14    15   1
    17    15    16   1
    18    15    17   1
    19    17    18   1
    20     1    19   1
    21     1    20   1
    22     1    21   1
    23     6    22   1
    24     6    23   1
    25     6    24   1
    26    12    25   1
    27    14    26   1
    28    14    27   1
    29    15    28   1
    30    16    29   1
    31    17    30   1
    32    17    31   1
    33    18    32   1
@<TRIPOS>SUBSTRUCTURE
     1  X0T      1

