@<TRIPOS>MOLECULE
2x0y_ligand_017
    32    33
SMALL
GAST_HUCK
****
This file was generated by PARSER (from files_GN.cpp)

@<TRIPOS>ATOM
      1 CAB        35.5294   50.3166   23.6199 C.3         1 X0T       0.0446
      2 N3         35.1314   49.3957   22.5760 N.am        1 X0T      -0.2025
      3 C2         35.2334   48.0539   22.6710 C.2         1 X0T       0.3177
      4 O2         35.7315   47.5792   23.6855 O.2         1 X0T      -0.3873
      5 N1         34.8145   47.2283   21.6758 N.am        1 X0T      -0.1740
      6 CAA        34.9619   45.7801   21.7723 C.3         1 X0T       0.0477
      7 C6         34.2506   47.7404   20.5565 C.2         1 X0T       0.2297
      8 O6         33.8415   47.0083   19.6683 O.2         1 X0T      -0.4007
      9 C5         34.1446   49.1148   20.3742 C.2         1 X0T       0.1627
     10 C4         34.6226   49.9194   21.4057 C.2         1 X0T       0.1377
     11 N9         34.5266   51.1965   21.0094 N.2         1 X0T      -0.2858
     12 C8         33.9923   51.1831   19.7765 C.2         1 X0T       0.0978
     13 N7         33.7207   49.9258   19.3682 N.pl3       1 X0T      -0.2487
     14 CAI        33.1991   49.5696   18.0671 C.3         1 X0T       0.0817
     15 CAO        31.9358   50.3321   17.5523 C.3         1 X0T       0.1052
     16 OAF        31.2370   49.5208   16.6043 O.3         1 X0T      -0.3868
     17 CAH        32.1968   51.6850   16.8465 C.3         1 X0T       0.0728
     18 OAE        33.2738   51.6115   15.9110 O.3         1 X0T      -0.3924
     19 H1         35.8517   49.8255   24.5398 H           1 X0T       0.0548
     20 H2         34.6913   50.9673   23.8848 H           1 X0T       0.0548
     21 H3         36.3604   50.9338   23.2700 H           1 X0T       0.0548
     22 H4         35.4241   45.4305   22.6965 H           1 X0T       0.0539
     23 H5         35.5832   45.4227   20.9476 H           1 X0T       0.0539
     24 H6         33.9816   45.3045   21.7030 H           1 X0T       0.0539
     25 H7         33.8388   52.0341   19.2251 H           1 X0T       0.1263
     26 H8         32.9297   48.5164   18.0656 H           1 X0T       0.0638
     27 H9         34.0086   49.6645   17.3488 H           1 X0T       0.0638
     28 H10        31.2587   50.5050   18.3967 H           1 X0T       0.0644
     29 H11        30.8654   48.7864   17.1312 H           1 X0T       0.2100
     30 H12        32.4103   52.4583   17.5821 H           1 X0T       0.0584
     31 H13        31.2956   51.9901   16.3034 H           1 X0T       0.0584
     32 H14        34.0937   51.5640   16.4490 H           1 X0T       0.2095
@<TRIPOS>BOND
     1     1     2   1
     2     2     3  am
     3     2    10   1
     4     3     4   2
     5     3     5  am
     6     5     6   1
     7     5     7  am
     8     7     8   2
     9     7     9   1
    10     9    10   2
    11     9    13   1
    12    10    11   1
    13    11    12   2
    14    12    13   1
    15    13    14   1
    16    14    15   1
    17    15    16   1
    18    15    17   1
    19    17    18   1
    20     1    19   1
    21     1    20   1
    22     1    21   1
    23     6    22   1
    24     6    23   1
    25     6    24   1
    26    12    25   1
    27    14    26   1
    28    14    27   1
    29    15    28   1
    30    16    29   1
    31    17    30   1
    32    17    31   1
    33    18    32   1
@<TRIPOS>SUBSTRUCTURE
     1  X0T      1

