@<TRIPOS>MOLECULE
2x0y_ligand_008
    32    33
SMALL
GAST_HUCK
****
This file was generated by PARSER (from files_GN.cpp)

@<TRIPOS>ATOM
      1 CAB        32.5411   43.6971   17.8928 C.3         1 X0T       0.0446
      2 N3         32.9529   44.4417   19.0626 N.am        1 X0T      -0.2025
      3 C2         33.0809   43.9123   20.2996 C.2         1 X0T       0.3177
      4 O2         32.8837   42.7112   20.4388 O.2         1 X0T      -0.3873
      5 N1         33.3972   44.6761   21.3793 N.am        1 X0T      -0.1740
      6 CAA        33.5031   44.1023   22.7151 C.3         1 X0T       0.0477
      7 C6         33.5973   46.0103   21.2389 C.2         1 X0T       0.2297
      8 O6         33.8421   46.7289   22.1991 O.2         1 X0T      -0.4007
      9 C5         33.5170   46.6173   19.9880 C.2         1 X0T       0.1627
     10 C4         33.1779   45.7946   18.9163 C.2         1 X0T       0.1377
     11 N9         33.0882   46.5542   17.8152 N.2         1 X0T      -0.2858
     12 C8         33.3723   47.8090   18.1832 C.2         1 X0T       0.0978
     13 N7         33.6613   47.8757   19.5022 N.pl3       1 X0T      -0.2487
     14 CAI        33.9020   49.1079   20.2067 C.3         1 X0T       0.0817
     15 CAO        34.9710   50.0691   19.5942 C.3         1 X0T       0.1052
     16 OAF        36.1622   50.0927   20.3840 O.3         1 X0T      -0.3868
     17 CAH        34.4542   51.5260   19.4570 C.3         1 X0T       0.0728
     18 OAE        33.5230   51.6466   18.3856 O.3         1 X0T      -0.3924
     19 H1         32.4146   42.6286   18.0712 H           1 X0T       0.0548
     20 H2         33.2831   43.8072   17.0987 H           1 X0T       0.0548
     21 H3         31.5825   44.0799   17.5319 H           1 X0T       0.0548
     22 H4         33.2894   43.0341   22.7763 H           1 X0T       0.0539
     23 H5         32.8043   44.6048   23.3890 H           1 X0T       0.0539
     24 H6         34.5169   44.2517   23.0908 H           1 X0T       0.0539
     25 H7         33.3323   48.6032   17.5313 H           1 X0T       0.1263
     26 H8         34.1903   48.9157   21.2418 H           1 X0T       0.0638
     27 H9         32.9334   49.6070   20.2562 H           1 X0T       0.0638
     28 H10        35.2786   49.7294   18.6080 H           1 X0T       0.0644
     29 H11        36.5727   49.2179   20.2237 H           1 X0T       0.2100
     30 H12        35.2875   52.1976   19.2524 H           1 X0T       0.0584
     31 H13        33.9677   51.8509   20.3806 H           1 X0T       0.0584
     32 H14        34.0564   51.4622   17.5846 H           1 X0T       0.2095
@<TRIPOS>BOND
     1     1     2   1
     2     2     3  am
     3     2    10   1
     4     3     4   2
     5     3     5  am
     6     5     6   1
     7     5     7  am
     8     7     8   2
     9     7     9   1
    10     9    10   2
    11     9    13   1
    12    10    11   1
    13    11    12   2
    14    12    13   1
    15    13    14   1
    16    14    15   1
    17    15    16   1
    18    15    17   1
    19    17    18   1
    20     1    19   1
    21     1    20   1
    22     1    21   1
    23     6    22   1
    24     6    23   1
    25     6    24   1
    26    12    25   1
    27    14    26   1
    28    14    27   1
    29    15    28   1
    30    16    29   1
    31    17    30   1
    32    17    31   1
    33    18    32   1
@<TRIPOS>SUBSTRUCTURE
     1  X0T      1

