@<TRIPOS>MOLECULE
2x0y_ligand_011
    32    33
SMALL
GAST_HUCK
****
This file was generated by PARSER (from files_GN.cpp)

@<TRIPOS>ATOM
      1 CAB        35.3702   47.4747   22.4311 C.3         1 X0T       0.0446
      2 N3         35.0000   46.0798   22.5222 N.am        1 X0T      -0.2025
      3 C2         33.7308   45.6130   22.4941 C.2         1 X0T       0.3177
      4 O2         32.8185   46.4257   22.3572 O.2         1 X0T      -0.3873
      5 N1         33.4451   44.2887   22.5961 N.am        1 X0T      -0.1740
      6 CAA        32.0752   43.7943   22.5772 C.3         1 X0T       0.0477
      7 C6         34.4454   43.3800   22.7152 C.2         1 X0T       0.2297
      8 O6         34.2213   42.1785   22.7759 O.2         1 X0T      -0.4007
      9 C5         35.7718   43.8001   22.7504 C.2         1 X0T       0.1627
     10 C4         36.0184   45.1632   22.6383 C.2         1 X0T       0.1377
     11 N9         37.3448   45.3563   22.6690 N.2         1 X0T      -0.2858
     12 C8         37.9030   44.1469   22.7969 C.2         1 X0T       0.0978
     13 N7         36.9668   43.1774   22.8890 N.pl3       1 X0T      -0.2487
     14 CAI        37.1734   41.7628   23.0651 C.3         1 X0T       0.0817
     15 CAO        38.5195   41.2388   23.6709 C.3         1 X0T       0.1052
     16 OAF        39.1446   42.1959   24.5197 O.3         1 X0T      -0.3868
     17 CAH        39.5202   40.6958   22.6299 C.3         1 X0T       0.0728
     18 OAE        38.9351   39.5774   21.9738 O.3         1 X0T      -0.3924
     19 H1         34.5204   48.1527   22.3558 H           1 X0T       0.0548
     20 H2         35.9936   47.6371   21.5494 H           1 X0T       0.0548
     21 H3         35.9364   47.7685   23.3167 H           1 X0T       0.0548
     22 H4         31.3137   44.5733   22.5051 H           1 X0T       0.0539
     23 H5         31.8692   43.2328   23.4922 H           1 X0T       0.0539
     24 H6         31.9357   43.1295   21.7212 H           1 X0T       0.0539
     25 H7         38.9106   44.0239   22.8322 H           1 X0T       0.1263
     26 H8         36.9760   41.2849   22.1022 H           1 X0T       0.0638
     27 H9         36.3963   41.4020   23.7386 H           1 X0T       0.0638
     28 H10        38.2934   40.3956   24.3201 H           1 X0T       0.0644
     29 H11        39.9369   41.7597   24.8983 H           1 X0T       0.2100
     30 H12        40.4257   40.3579   23.1340 H           1 X0T       0.0584
     31 H13        39.7883   41.4561   21.9002 H           1 X0T       0.0584
     32 H14        39.6733   39.0012   21.6933 H           1 X0T       0.2095
@<TRIPOS>BOND
     1     1     2   1
     2     2     3  am
     3     2    10   1
     4     3     4   2
     5     3     5  am
     6     5     6   1
     7     5     7  am
     8     7     8   2
     9     7     9   1
    10     9    10   2
    11     9    13   1
    12    10    11   1
    13    11    12   2
    14    12    13   1
    15    13    14   1
    16    14    15   1
    17    15    16   1
    18    15    17   1
    19    17    18   1
    20     1    19   1
    21     1    20   1
    22     1    21   1
    23     6    22   1
    24     6    23   1
    25     6    24   1
    26    12    25   1
    27    14    26   1
    28    14    27   1
    29    15    28   1
    30    16    29   1
    31    17    30   1
    32    17    31   1
    33    18    32   1
@<TRIPOS>SUBSTRUCTURE
     1  X0T      1

