@<TRIPOS>MOLECULE
2x0y_ligand_007
    32    33
SMALL
GAST_HUCK
****
This file was generated by PARSER (from files_GN.cpp)

@<TRIPOS>ATOM
      1 CAB        34.3060   45.0212   18.3570 C.3         1 X0T       0.0446
      2 N3         34.2666   44.2475   19.5794 N.am        1 X0T      -0.2025
      3 C2         35.3529   43.7347   20.1953 C.2         1 X0T       0.3177
      4 O2         36.4614   44.0173   19.7532 O.2         1 X0T      -0.3873
      5 N1         35.2517   42.9251   21.2815 N.am        1 X0T      -0.1740
      6 CAA        36.4303   42.3550   21.9232 C.3         1 X0T       0.0477
      7 C6         34.0320   42.6242   21.7880 C.2         1 X0T       0.2297
      8 O6         33.9136   41.8405   22.7184 O.2         1 X0T      -0.4007
      9 C5         32.8742   43.1894   21.2604 C.2         1 X0T       0.1627
     10 C4         33.0342   44.0111   20.1449 C.2         1 X0T       0.1377
     11 N9         31.8323   44.4961   19.8049 N.2         1 X0T      -0.2858
     12 C8         30.9474   43.9864   20.6741 C.2         1 X0T       0.0978
     13 N7         31.5541   43.1770   21.5729 N.pl3       1 X0T      -0.2487
     14 CAI        30.8633   42.5256   22.6577 C.3         1 X0T       0.0817
     15 CAO        29.7798   41.5133   22.1823 C.3         1 X0T       0.1052
     16 OAF        28.6607   42.2045   21.6225 O.3         1 X0T      -0.3868
     17 CAH        29.2835   40.5681   23.3067 C.3         1 X0T       0.0728
     18 OAE        28.8631   41.2843   24.4648 O.3         1 X0T      -0.3924
     19 H1         35.3036   45.1096   17.9251 H           1 X0T       0.0548
     20 H2         33.9326   46.0289   18.5479 H           1 X0T       0.0548
     21 H3         33.6734   44.5491   17.6017 H           1 X0T       0.0548
     22 H4         37.3762   42.6067   21.4410 H           1 X0T       0.0539
     23 H5         36.3624   41.2646   21.9281 H           1 X0T       0.0539
     24 H6         36.4933   42.7050   22.9574 H           1 X0T       0.0539
     25 H7         29.9510   44.2117   20.6539 H           1 X0T       0.1263
     26 H8         30.3885   43.2901   23.2779 H           1 X0T       0.0638
     27 H9         31.5674   42.0001   23.2987 H           1 X0T       0.0638
     28 H10        30.2048   40.8888   21.3933 H           1 X0T       0.0644
     29 H11        28.1590   42.5872   22.3774 H           1 X0T       0.2100
     30 H12        30.0833   39.8877   23.5988 H           1 X0T       0.0584
     31 H13        28.4434   39.9659   22.9485 H           1 X0T       0.0584
     32 H14        28.0095   41.7020   24.2152 H           1 X0T       0.2095
@<TRIPOS>BOND
     1     1     2   1
     2     2     3  am
     3     2    10   1
     4     3     4   2
     5     3     5  am
     6     5     6   1
     7     5     7  am
     8     7     8   2
     9     7     9   1
    10     9    10   2
    11     9    13   1
    12    10    11   1
    13    11    12   2
    14    12    13   1
    15    13    14   1
    16    14    15   1
    17    15    16   1
    18    15    17   1
    19    17    18   1
    20     1    19   1
    21     1    20   1
    22     1    21   1
    23     6    22   1
    24     6    23   1
    25     6    24   1
    26    12    25   1
    27    14    26   1
    28    14    27   1
    29    15    28   1
    30    16    29   1
    31    17    30   1
    32    17    31   1
    33    18    32   1
@<TRIPOS>SUBSTRUCTURE
     1  X0T      1

