@<TRIPOS>MOLECULE
2x0y_ligand_012
    32    33
SMALL
GAST_HUCK
****
This file was generated by PARSER (from files_GN.cpp)

@<TRIPOS>ATOM
      1 CAB        33.7367   32.8392   13.0780 C.3         1 X0T       0.0446
      2 N3         33.2376   33.9922   13.7992 N.am        1 X0T      -0.2025
      3 C2         32.1713   33.9636   14.6262 C.2         1 X0T       0.3177
      4 O2         31.5549   32.9080   14.7381 O.2         1 X0T      -0.3873
      5 N1         31.7613   35.0646   15.3079 N.am        1 X0T      -0.1740
      6 CAA        30.5525   35.0380   16.1248 C.3         1 X0T       0.0477
      7 C6         32.4720   36.2165   15.2326 C.2         1 X0T       0.2297
      8 O6         32.1479   37.1962   15.8891 O.2         1 X0T      -0.4007
      9 C5         33.5639   36.3243   14.3815 C.2         1 X0T       0.1627
     10 C4         33.9025   35.1863   13.6558 C.2         1 X0T       0.1377
     11 N9         34.9057   35.5149   12.8289 N.2         1 X0T      -0.2858
     12 C8         35.1822   36.8108   13.0349 C.2         1 X0T       0.0978
     13 N7         34.3885   37.3247   13.9923 N.pl3       1 X0T      -0.2487
     14 CAI        34.4844   38.6877   14.4284 C.3         1 X0T       0.0817
     15 CAO        35.9458   39.2461   14.6195 C.3         1 X0T       0.1052
     16 OAF        36.9487   38.2516   14.3949 O.3         1 X0T      -0.3868
     17 CAH        36.2024   39.9503   15.9872 C.3         1 X0T       0.0728
     18 OAE        37.4484   39.5419   16.5699 O.3         1 X0T      -0.3924
     19 H1         33.1546   31.9291   13.2407 H           1 X0T       0.0548
     20 H2         34.7633   32.6211   13.3890 H           1 X0T       0.0548
     21 H3         33.7297   33.0352   12.0010 H           1 X0T       0.0548
     22 H4         30.0336   34.0759   16.1543 H           1 X0T       0.0539
     23 H5         29.8414   35.7674   15.7288 H           1 X0T       0.0539
     24 H6         30.7853   35.3019   17.1619 H           1 X0T       0.0539
     25 H7         35.8974   37.3316   12.5204 H           1 X0T       0.1263
     26 H8         33.9277   38.8386   15.3567 H           1 X0T       0.0638
     27 H9         33.9746   39.3166   13.6840 H           1 X0T       0.0638
     28 H10        36.1250   40.0099   13.8373 H           1 X0T       0.0644
     29 H11        36.7915   37.5720   15.0795 H           1 X0T       0.2100
     30 H12        35.3975   39.7248   16.7051 H           1 X0T       0.0584
     31 H13        36.2302   41.0413   15.8301 H           1 X0T       0.0584
     32 H14        37.2456   38.6445   16.9214 H           1 X0T       0.2095
@<TRIPOS>BOND
     1     1     2   1
     2     2     3  am
     3     2    10   1
     4     3     4   2
     5     3     5  am
     6     5     6   1
     7     5     7  am
     8     7     8   2
     9     7     9   1
    10     9    10   2
    11     9    13   1
    12    10    11   1
    13    11    12   2
    14    12    13   1
    15    13    14   1
    16    14    15   1
    17    15    16   1
    18    15    17   1
    19    17    18   1
    20     1    19   1
    21     1    20   1
    22     1    21   1
    23     6    22   1
    24     6    23   1
    25     6    24   1
    26    12    25   1
    27    14    26   1
    28    14    27   1
    29    15    28   1
    30    16    29   1
    31    17    30   1
    32    17    31   1
    33    18    32   1
@<TRIPOS>SUBSTRUCTURE
     1  X0T      1

