@<TRIPOS>MOLECULE
2x0y_ligand_014
    32    33
SMALL
GAST_HUCK
****
This file was generated by PARSER (from files_GN.cpp)

@<TRIPOS>ATOM
      1 CAB        31.2128   39.3740   17.1156 C.3         1 X0T       0.0446
      2 N3         32.0576   38.6471   16.1900 N.am        1 X0T      -0.2025
      3 C2         31.8823   37.3540   15.8457 C.2         1 X0T       0.3177
      4 O2         30.9285   36.7501   16.3257 O.2         1 X0T      -0.3873
      5 N1         32.7104   36.7254   14.9719 N.am        1 X0T      -0.1740
      6 CAA        32.4588   35.3610   14.5309 C.3         1 X0T       0.0477
      7 C6         33.7855   37.3753   14.4618 C.2         1 X0T       0.2297
      8 O6         34.5350   36.8414   13.6526 O.2         1 X0T      -0.4007
      9 C5         34.0223   38.7094   14.7765 C.2         1 X0T       0.1627
     10 C4         33.1067   39.3297   15.6207 C.2         1 X0T       0.1377
     11 N9         33.4302   40.6275   15.7126 N.2         1 X0T      -0.2858
     12 C8         34.5243   40.8077   14.9617 C.2         1 X0T       0.0978
     13 N7         34.9409   39.6394   14.4198 N.pl3       1 X0T      -0.2487
     14 CAI        36.1338   39.4851   13.6252 C.3         1 X0T       0.0817
     15 CAO        37.3888   40.2435   14.1492 C.3         1 X0T       0.1052
     16 OAF        38.5457   39.8385   13.4100 O.3         1 X0T      -0.3868
     17 CAH        37.6635   40.0660   15.6656 C.3         1 X0T       0.0728
     18 OAE        38.2923   38.8293   15.9933 O.3         1 X0T      -0.3924
     19 H1         30.4035   38.7761   17.5337 H           1 X0T       0.0548
     20 H2         30.7564   40.2288   16.6096 H           1 X0T       0.0548
     21 H3         31.8107   39.7415   17.9550 H           1 X0T       0.0548
     22 H4         31.5815   34.8906   14.9774 H           1 X0T       0.0539
     23 H5         33.3169   34.7255   14.7685 H           1 X0T       0.0539
     24 H6         32.3068   35.3489   13.4466 H           1 X0T       0.0539
     25 H7         34.9873   41.7107   14.8654 H           1 X0T       0.1263
     26 H8         35.9183   39.8419   12.6139 H           1 X0T       0.0638
     27 H9         36.4129   38.4330   13.5432 H           1 X0T       0.0638
     28 H10        37.2519   41.3123   13.9572 H           1 X0T       0.0644
     29 H11        39.2713   40.3852   13.7760 H           1 X0T       0.2100
     30 H12        36.7366   40.1532   16.2459 H           1 X0T       0.0584
     31 H13        38.3407   40.8612   15.9909 H           1 X0T       0.0584
     32 H14        37.5686   38.1634   16.0401 H           1 X0T       0.2095
@<TRIPOS>BOND
     1     1     2   1
     2     2     3  am
     3     2    10   1
     4     3     4   2
     5     3     5  am
     6     5     6   1
     7     5     7  am
     8     7     8   2
     9     7     9   1
    10     9    10   2
    11     9    13   1
    12    10    11   1
    13    11    12   2
    14    12    13   1
    15    13    14   1
    16    14    15   1
    17    15    16   1
    18    15    17   1
    19    17    18   1
    20     1    19   1
    21     1    20   1
    22     1    21   1
    23     6    22   1
    24     6    23   1
    25     6    24   1
    26    12    25   1
    27    14    26   1
    28    14    27   1
    29    15    28   1
    30    16    29   1
    31    17    30   1
    32    17    31   1
    33    18    32   1
@<TRIPOS>SUBSTRUCTURE
     1  X0T      1

