@<TRIPOS>MOLECULE
2x8z_ligand_051
    28    28
SMALL
GAST_HUCK
****
This file was generated by PARSER (from files_GN.cpp)

@<TRIPOS>ATOM
      1 O1         26.3537   11.0607  -44.6869 O.2         1 X8Z      -0.3964
      2 C4         27.5292   10.7488  -44.5250 C.2         1 X8Z       0.1838
      3 C2         28.3324   11.7142  -43.7526 C.3         1 X8Z       0.0548
      4 C1         27.9060   13.2084  -43.9185 C.3         1 X8Z       0.0101
      5 S          28.2340   13.8618  -45.5731 S.3         1 X8Z      -0.1756
      6 C3         28.3222   11.2977  -42.2526 C.3         1 X8Z      -0.0446
      7 N          27.9361    9.5189  -44.8917 N.am        1 X8Z      -0.2572
      8 C8         29.2754    8.9955  -44.7473 C.3         1 X8Z       0.0971
      9 C9         30.3031    9.6453  -45.5965 C.2         1 X8Z       0.0603
     10 O3         31.5945    9.2560  -45.4847 O.co2       1 X8Z      -0.5666
     11 O2         29.9912   10.5920  -46.5138 O.co2       1 X8Z      -0.5666
     12 C5         27.0221    8.5017  -45.3293 C.3         1 X8Z       0.0362
     13 C6         27.6917    7.1795  -44.9176 C.3         1 X8Z      -0.0288
     14 C7         29.1809    7.4840  -45.0796 C.3         1 X8Z      -0.0159
     15 H1         29.3822   11.6806  -44.0640 H           1 X8Z       0.0543
     16 H2         28.4671   13.8187  -43.2019 H           1 X8Z       0.0401
     17 H3         26.8453   13.3330  -43.7032 H           1 X8Z       0.0401
     18 H4         29.0556   14.8441  -45.0902 H           1 X8Z       0.1018
     19 H5         28.6962   10.2780  -42.1371 H           1 X8Z       0.0257
     20 H6         27.3115   11.3416  -41.8461 H           1 X8Z       0.0257
     21 H7         28.9651   11.9577  -41.6674 H           1 X8Z       0.0257
     22 H8         29.5828    9.0943  -43.6975 H           1 X8Z       0.0728
     23 H9         26.9054    8.5553  -46.4172 H           1 X8Z       0.0524
     24 H10        26.0339    8.5614  -44.8582 H           1 X8Z       0.0524
     25 H11        27.3718    6.3408  -45.5447 H           1 X8Z       0.0286
     26 H12        27.4626    6.9544  -43.8699 H           1 X8Z       0.0286
     27 H13        29.7844    6.8764  -44.4013 H           1 X8Z       0.0306
     28 H14        29.4746    7.2617  -46.1102 H           1 X8Z       0.0306
@<TRIPOS>BOND
     1     1     2   2
     2     2     3   1
     3     2     7  am
     4     3     4   1
     5     3     6   1
     6     4     5   1
     7     7     8   1
     8     7    12   1
     9     8     9   1
    10     8    14   1
    11     9    10  ar
    12     9    11  ar
    13    12    13   1
    14    13    14   1
    15     3    15   1
    16     4    16   1
    17     4    17   1
    18     5    18   1
    19     6    19   1
    20     6    20   1
    21     6    21   1
    22     8    22   1
    23    12    23   1
    24    12    24   1
    25    13    25   1
    26    13    26   1
    27    14    27   1
    28    14    28   1
@<TRIPOS>SUBSTRUCTURE
     1  X8Z      2

