@<TRIPOS>MOLECULE
2x8z_ligand_026
    28    28
SMALL
GAST_HUCK
****
This file was generated by PARSER (from files_GN.cpp)

@<TRIPOS>ATOM
      1 O1         28.3977    5.5576  -42.8213 O.2         1 X8Z      -0.3964
      2 C4         28.8402    6.5221  -43.4397 C.2         1 X8Z       0.1838
      3 C2         27.9505    7.6926  -43.5030 C.3         1 X8Z       0.0548
      4 C1         26.5671    7.4112  -44.1615 C.3         1 X8Z       0.0101
      5 S          25.4569    6.3455  -43.2038 S.3         1 X8Z      -0.1756
      6 C3         27.8319    8.3647  -42.1016 C.3         1 X8Z      -0.0446
      7 N          30.0961    6.4520  -43.9108 N.am        1 X8Z      -0.2572
      8 C8         31.0253    5.3745  -43.6063 C.3         1 X8Z       0.0971
      9 C9         31.3173    5.1191  -42.1772 C.2         1 X8Z       0.0603
     10 O3         30.3987    5.3536  -41.2027 O.co2       1 X8Z      -0.5666
     11 O2         32.4614    4.4852  -41.8172 O.co2       1 X8Z      -0.5666
     12 C5         30.6527    7.3973  -44.8359 C.3         1 X8Z       0.0362
     13 C6         31.8925    6.7247  -45.4456 C.3         1 X8Z      -0.0288
     14 C7         32.3362    5.7414  -44.3614 C.3         1 X8Z      -0.0159
     15 H1         28.4030    8.4643  -44.1328 H           1 X8Z       0.0543
     16 H2         26.7131    6.9593  -45.1399 H           1 X8Z       0.0401
     17 H3         26.0487    8.3648  -44.3215 H           1 X8Z       0.0401
     18 H4         24.3213    6.7534  -43.8723 H           1 X8Z       0.1018
     19 H5         28.8098    8.7284  -41.7766 H           1 X8Z       0.0257
     20 H6         27.4627    7.6568  -41.3582 H           1 X8Z       0.0257
     21 H7         27.1472    9.2171  -42.1435 H           1 X8Z       0.0257
     22 H8         30.6254    4.4438  -44.0365 H           1 X8Z       0.0728
     23 H9         30.9308    8.3083  -44.2964 H           1 X8Z       0.0524
     24 H10        29.9609    7.6512  -45.6482 H           1 X8Z       0.0524
     25 H11        32.6657    7.4601  -45.6847 H           1 X8Z       0.0286
     26 H12        31.6219    6.1853  -46.3586 H           1 X8Z       0.0286
     27 H13        32.8169    4.8599  -44.8010 H           1 X8Z       0.0306
     28 H14        33.0554    6.2402  -43.7000 H           1 X8Z       0.0306
@<TRIPOS>BOND
     1     1     2   2
     2     2     3   1
     3     2     7  am
     4     3     4   1
     5     3     6   1
     6     4     5   1
     7     7     8   1
     8     7    12   1
     9     8     9   1
    10     8    14   1
    11     9    10  ar
    12     9    11  ar
    13    12    13   1
    14    13    14   1
    15     3    15   1
    16     4    16   1
    17     4    17   1
    18     5    18   1
    19     6    19   1
    20     6    20   1
    21     6    21   1
    22     8    22   1
    23    12    23   1
    24    12    24   1
    25    13    25   1
    26    13    26   1
    27    14    27   1
    28    14    28   1
@<TRIPOS>SUBSTRUCTURE
     1  X8Z      2

