@<TRIPOS>MOLECULE
2x8z_ligand_092
    28    28
SMALL
GAST_HUCK
****
This file was generated by PARSER (from files_GN.cpp)

@<TRIPOS>ATOM
      1 O1         29.7597    9.4622  -44.8844 O.2         1 X8Z      -0.3964
      2 C4         28.8096    9.0749  -44.2096 C.2         1 X8Z       0.1838
      3 C2         27.8117    8.2648  -44.9240 C.3         1 X8Z       0.0548
      4 C1         27.1277    9.0608  -46.0773 C.3         1 X8Z       0.0101
      5 S          26.0247   10.3872  -45.5198 S.3         1 X8Z      -0.1756
      6 C3         28.4558    6.9432  -45.4388 C.3         1 X8Z      -0.0446
      7 N          28.7725    9.3967  -42.9039 N.am        1 X8Z      -0.2572
      8 C8         29.8502   10.0721  -42.2161 C.3         1 X8Z       0.0971
      9 C9         31.1660    9.3902  -42.2434 C.2         1 X8Z       0.0603
     10 O3         32.2454    9.9842  -41.6867 O.co2       1 X8Z      -0.5666
     11 O2         31.3249    8.1521  -42.7635 O.co2       1 X8Z      -0.5666
     12 C5         27.6332    9.1938  -42.0559 C.3         1 X8Z       0.0362
     13 C6         27.8406   10.1202  -40.8510 C.3         1 X8Z      -0.0288
     14 C7         29.3640   10.2406  -40.7551 C.3         1 X8Z      -0.0159
     15 H1         27.0161    7.9361  -44.2534 H           1 X8Z       0.0543
     16 H2         26.5045    8.3784  -46.6555 H           1 X8Z       0.0401
     17 H3         27.8746    9.4864  -46.7527 H           1 X8Z       0.0401
     18 H4         27.0210   11.1327  -44.9635 H           1 X8Z       0.1018
     19 H5         28.9506    6.4123  -44.6189 H           1 X8Z       0.0257
     20 H6         29.1942    7.1399  -46.2220 H           1 X8Z       0.0257
     21 H7         27.6887    6.2818  -45.8463 H           1 X8Z       0.0257
     22 H8         29.9695   11.0593  -42.6707 H           1 X8Z       0.0728
     23 H9         27.5870    8.1489  -41.7377 H           1 X8Z       0.0524
     24 H10        26.6944    9.4705  -42.5420 H           1 X8Z       0.0524
     25 H11        27.4020    9.7086  -39.9368 H           1 X8Z       0.0286
     26 H12        27.3990   11.1016  -41.0498 H           1 X8Z       0.0286
     27 H13        29.6687   11.2027  -40.3317 H           1 X8Z       0.0306
     28 H14        29.7335    9.4353  -40.1100 H           1 X8Z       0.0306
@<TRIPOS>BOND
     1     1     2   2
     2     2     3   1
     3     2     7  am
     4     3     4   1
     5     3     6   1
     6     4     5   1
     7     7     8   1
     8     7    12   1
     9     8     9   1
    10     8    14   1
    11     9    10  ar
    12     9    11  ar
    13    12    13   1
    14    13    14   1
    15     3    15   1
    16     4    16   1
    17     4    17   1
    18     5    18   1
    19     6    19   1
    20     6    20   1
    21     6    21   1
    22     8    22   1
    23    12    23   1
    24    12    24   1
    25    13    25   1
    26    13    26   1
    27    14    27   1
    28    14    28   1
@<TRIPOS>SUBSTRUCTURE
     1  X8Z      2

