@<TRIPOS>MOLECULE
2x8z_ligand_058
    28    28
SMALL
GAST_HUCK
****
This file was generated by PARSER (from files_GN.cpp)

@<TRIPOS>ATOM
      1 O1         30.7749    5.7542  -44.8455 O.2         1 X8Z      -0.3964
      2 C4         30.1960    6.5879  -44.1559 C.2         1 X8Z       0.1838
      3 C2         29.4011    7.5832  -44.8883 C.3         1 X8Z       0.0548
      4 C1         30.3459    8.5640  -45.6409 C.3         1 X8Z       0.0101
      5 S          29.5335   10.0722  -46.2238 S.3         1 X8Z      -0.1756
      6 C3         28.3815    6.8825  -45.8313 C.3         1 X8Z      -0.0446
      7 N          30.3617    6.5428  -42.8226 N.am        1 X8Z      -0.2572
      8 C8         29.9291    7.5364  -41.8662 C.3         1 X8Z       0.0971
      9 C9         30.3961    8.9200  -42.1310 C.2         1 X8Z       0.0603
     10 O3         31.7116    9.2082  -42.2703 O.co2       1 X8Z      -0.5666
     11 O2         29.4996    9.9170  -42.2893 O.co2       1 X8Z      -0.5666
     12 C5         30.9604    5.4036  -42.1765 C.3         1 X8Z       0.0362
     13 C6         30.6217    5.5407  -40.6854 C.3         1 X8Z      -0.0288
     14 C7         30.4464    7.0469  -40.4892 C.3         1 X8Z      -0.0159
     15 H1         28.7936    8.1634  -44.1985 H           1 X8Z       0.0543
     16 H2         30.8171    8.0628  -46.4923 H           1 X8Z       0.0401
     17 H3         31.1469    8.8925  -44.9743 H           1 X8Z       0.0401
     18 H4         29.0096    9.4678  -47.3243 H           1 X8Z       0.1018
     19 H5         27.7806    6.1538  -45.2813 H           1 X8Z       0.0257
     20 H6         28.8998    6.3605  -46.6412 H           1 X8Z       0.0257
     21 H7         27.6999    7.6117  -46.2765 H           1 X8Z       0.0257
     22 H8         28.8298    7.5240  -41.8465 H           1 X8Z       0.0728
     23 H9         32.0424    5.4054  -42.3420 H           1 X8Z       0.0524
     24 H10        30.5438    4.4638  -42.5537 H           1 X8Z       0.0524
     25 H11        31.4121    5.1334  -40.0507 H           1 X8Z       0.0286
     26 H12        29.6792    5.0271  -40.4665 H           1 X8Z       0.0286
     27 H13        29.7303    7.2694  -39.6922 H           1 X8Z       0.0306
     28 H14        31.4129    7.4900  -40.2325 H           1 X8Z       0.0306
@<TRIPOS>BOND
     1     1     2   2
     2     2     3   1
     3     2     7  am
     4     3     4   1
     5     3     6   1
     6     4     5   1
     7     7     8   1
     8     7    12   1
     9     8     9   1
    10     8    14   1
    11     9    10  ar
    12     9    11  ar
    13    12    13   1
    14    13    14   1
    15     3    15   1
    16     4    16   1
    17     4    17   1
    18     5    18   1
    19     6    19   1
    20     6    20   1
    21     6    21   1
    22     8    22   1
    23    12    23   1
    24    12    24   1
    25    13    25   1
    26    13    26   1
    27    14    27   1
    28    14    28   1
@<TRIPOS>SUBSTRUCTURE
     1  X8Z      2

