@<TRIPOS>MOLECULE
2x8z_ligand_014
    28    28
SMALL
GAST_HUCK
****
This file was generated by PARSER (from files_GN.cpp)

@<TRIPOS>ATOM
      1 O1         25.1376   11.1182  -45.6074 O.2         1 X8Z      -0.3964
      2 C4         26.3030   11.5061  -45.5679 C.2         1 X8Z       0.1838
      3 C2         26.6239   12.4444  -46.6649 C.3         1 X8Z       0.0548
      4 C1         27.8249   13.4298  -46.5143 C.3         1 X8Z       0.0101
      5 S          27.6268   14.5753  -45.1289 S.3         1 X8Z      -0.1756
      6 C3         26.6654   11.6948  -48.0249 C.3         1 X8Z      -0.0446
      7 N          27.0773   11.0019  -44.5806 N.am        1 X8Z      -0.2572
      8 C8         28.5193   11.0121  -44.4767 C.3         1 X8Z       0.0971
      9 C9         29.2048   10.3620  -45.6164 C.2         1 X8Z       0.0603
     10 O3         29.0502    9.0342  -45.8413 O.co2       1 X8Z      -0.5666
     11 O2         29.9267   11.0814  -46.5031 O.co2       1 X8Z      -0.5666
     12 C5         26.4836   10.3591  -43.4330 C.3         1 X8Z       0.0362
     13 C6         27.5705   10.3272  -42.3491 C.3         1 X8Z      -0.0288
     14 C7         28.8642   10.2652  -43.1600 C.3         1 X8Z      -0.0159
     15 H1         25.7639   13.1241  -46.7474 H           1 X8Z       0.0543
     16 H2         27.9058   14.0407  -47.4166 H           1 X8Z       0.0401
     17 H3         28.7653   12.8963  -46.4176 H           1 X8Z       0.0401
     18 H4         28.9335   14.9548  -45.0910 H           1 X8Z       0.1018
     19 H5         25.7676   11.0877  -48.1616 H           1 X8Z       0.0257
     20 H6         27.5414   11.0483  -48.0847 H           1 X8Z       0.0257
     21 H7         26.7017   12.4049  -48.8523 H           1 X8Z       0.0257
     22 H8         28.8727   12.0380  -44.3647 H           1 X8Z       0.0728
     23 H9         26.1634    9.3453  -43.6962 H           1 X8Z       0.0524
     24 H10        25.6223   10.9184  -43.0505 H           1 X8Z       0.0524
     25 H11        27.4589    9.4698  -41.6797 H           1 X8Z       0.0286
     26 H12        27.5448   11.2476  -41.7586 H           1 X8Z       0.0286
     27 H13        29.6925   10.7427  -42.6292 H           1 X8Z       0.0306
     28 H14        29.1207    9.2125  -43.3249 H           1 X8Z       0.0306
@<TRIPOS>BOND
     1     1     2   2
     2     2     3   1
     3     2     7  am
     4     3     4   1
     5     3     6   1
     6     4     5   1
     7     7     8   1
     8     7    12   1
     9     8     9   1
    10     8    14   1
    11     9    10  ar
    12     9    11  ar
    13    12    13   1
    14    13    14   1
    15     3    15   1
    16     4    16   1
    17     4    17   1
    18     5    18   1
    19     6    19   1
    20     6    20   1
    21     6    21   1
    22     8    22   1
    23    12    23   1
    24    12    24   1
    25    13    25   1
    26    13    26   1
    27    14    27   1
    28    14    28   1
@<TRIPOS>SUBSTRUCTURE
     1  X8Z      2

