@<TRIPOS>MOLECULE
2x8z_ligand_012
    28    28
SMALL
GAST_HUCK
****
This file was generated by PARSER (from files_GN.cpp)

@<TRIPOS>ATOM
      1 O1         31.4728    4.9564  -40.0346 O.2         1 X8Z      -0.3964
      2 C4         30.4977    5.5367  -39.5609 C.2         1 X8Z       0.1838
      3 C2         30.7645    6.2944  -38.3222 C.3         1 X8Z       0.0548
      4 C1         30.7410    5.4107  -37.0338 C.3         1 X8Z       0.0101
      5 S          31.9083    4.0181  -37.0040 S.3         1 X8Z      -0.1756
      6 C3         32.0683    7.1553  -38.4043 C.3         1 X8Z      -0.0446
      7 N          29.3225    5.4681  -40.2244 N.am        1 X8Z      -0.2572
      8 C8         28.0474    5.9807  -39.7867 C.3         1 X8Z       0.0971
      9 C9         27.5646    5.4860  -38.4711 C.2         1 X8Z       0.0603
     10 O3         27.1130    4.2227  -38.3123 O.co2       1 X8Z      -0.5666
     11 O2         27.4504    6.3408  -37.4260 O.co2       1 X8Z      -0.5666
     12 C5         29.2596    4.9602  -41.5712 C.3         1 X8Z       0.0362
     13 C6         27.9223    5.4418  -42.1540 C.3         1 X8Z      -0.0288
     14 C7         27.0423    5.6188  -40.9118 C.3         1 X8Z      -0.0159
     15 H1         29.9643    7.0277  -38.1855 H           1 X8Z       0.0543
     16 H2         29.7188    5.0436  -36.8840 H           1 X8Z       0.0401
     17 H3         30.9903    6.0333  -36.1707 H           1 X8Z       0.0401
     18 H4         30.9244    3.0776  -37.0576 H           1 X8Z       0.1018
     19 H5         32.0323    7.8241  -39.2723 H           1 X8Z       0.0257
     20 H6         32.9587    6.5277  -38.4825 H           1 X8Z       0.0257
     21 H7         32.1663    7.7816  -37.5086 H           1 X8Z       0.0257
     22 H8         28.1199    7.0696  -39.7407 H           1 X8Z       0.0728
     23 H9         29.3048    3.8707  -41.5569 H           1 X8Z       0.0524
     24 H10        30.0719    5.3448  -42.1947 H           1 X8Z       0.0524
     25 H11        27.5059    4.7195  -42.8619 H           1 X8Z       0.0286
     26 H12        28.0533    6.4029  -42.6655 H           1 X8Z       0.0286
     27 H13        26.2995    6.4054  -41.0678 H           1 X8Z       0.0306
     28 H14        26.5184    4.6757  -40.7134 H           1 X8Z       0.0306
@<TRIPOS>BOND
     1     1     2   2
     2     2     3   1
     3     2     7  am
     4     3     4   1
     5     3     6   1
     6     4     5   1
     7     7     8   1
     8     7    12   1
     9     8     9   1
    10     8    14   1
    11     9    10  ar
    12     9    11  ar
    13    12    13   1
    14    13    14   1
    15     3    15   1
    16     4    16   1
    17     4    17   1
    18     5    18   1
    19     6    19   1
    20     6    20   1
    21     6    21   1
    22     8    22   1
    23    12    23   1
    24    12    24   1
    25    13    25   1
    26    13    26   1
    27    14    27   1
    28    14    28   1
@<TRIPOS>SUBSTRUCTURE
     1  X8Z      2

