@<TRIPOS>MOLECULE
2x8z_ligand_061
    28    28
SMALL
GAST_HUCK
****
This file was generated by PARSER (from files_GN.cpp)

@<TRIPOS>ATOM
      1 O1         31.6384   12.2869  -37.4261 O.2         1 X8Z      -0.3964
      2 C4         31.1122   11.1903  -37.2446 C.2         1 X8Z       0.1838
      3 C2         30.6916   10.9641  -35.8467 C.3         1 X8Z       0.0548
      4 C1         29.3167   10.2528  -35.6533 C.3         1 X8Z       0.0101
      5 S          28.4583   10.7896  -34.1459 S.3         1 X8Z      -0.1756
      6 C3         31.8249   10.3086  -35.0026 C.3         1 X8Z      -0.0446
      7 N          31.0048   10.3834  -38.3246 N.am        1 X8Z      -0.2572
      8 C8         30.5459    9.0133  -38.3653 C.3         1 X8Z       0.0971
      9 C9         31.3726    8.0749  -37.5715 C.2         1 X8Z       0.0603
     10 O3         32.7115    8.0455  -37.7431 O.co2       1 X8Z      -0.5666
     11 O2         30.7896    6.9731  -37.0310 O.co2       1 X8Z      -0.5666
     12 C5         31.2744   10.8687  -39.6553 C.3         1 X8Z       0.0362
     13 C6         30.5457    9.9228  -40.6172 C.3         1 X8Z      -0.0288
     14 C7         30.5486    8.5936  -39.8612 C.3         1 X8Z      -0.0159
     15 H1         30.5567   11.9551  -35.4005 H           1 X8Z       0.0543
     16 H2         29.4616    9.1711  -35.5841 H           1 X8Z       0.0401
     17 H3         28.6657   10.4617  -36.5091 H           1 X8Z       0.0401
     18 H4         27.8782    9.5715  -33.9457 H           1 X8Z       0.1018
     19 H5         32.7400   10.9164  -35.0474 H           1 X8Z       0.0257
     20 H6         32.0594    9.3010  -35.3636 H           1 X8Z       0.0257
     21 H7         31.5256   10.2346  -33.9518 H           1 X8Z       0.0257
     22 H8         29.5092    8.9847  -38.0113 H           1 X8Z       0.0728
     23 H9         32.3545   10.8514  -39.8420 H           1 X8Z       0.0524
     24 H10        30.8984   11.8828  -39.8136 H           1 X8Z       0.0524
     25 H11        31.0574    9.8504  -41.5831 H           1 X8Z       0.0286
     26 H12        29.5155   10.2607  -40.7808 H           1 X8Z       0.0286
     27 H13        29.6775    7.9868  -40.1163 H           1 X8Z       0.0306
     28 H14        31.4546    8.0410  -40.1382 H           1 X8Z       0.0306
@<TRIPOS>BOND
     1     1     2   2
     2     2     3   1
     3     2     7  am
     4     3     4   1
     5     3     6   1
     6     4     5   1
     7     7     8   1
     8     7    12   1
     9     8     9   1
    10     8    14   1
    11     9    10  ar
    12     9    11  ar
    13    12    13   1
    14    13    14   1
    15     3    15   1
    16     4    16   1
    17     4    17   1
    18     5    18   1
    19     6    19   1
    20     6    20   1
    21     6    21   1
    22     8    22   1
    23    12    23   1
    24    12    24   1
    25    13    25   1
    26    13    26   1
    27    14    27   1
    28    14    28   1
@<TRIPOS>SUBSTRUCTURE
     1  X8Z      2

