@<TRIPOS>MOLECULE
2x8z_ligand_050
    28    28
SMALL
GAST_HUCK
****
This file was generated by PARSER (from files_GN.cpp)

@<TRIPOS>ATOM
      1 O1         29.7180    3.9551  -44.3330 O.2         1 X8Z      -0.3964
      2 C4         29.0821    4.8775  -43.8320 C.2         1 X8Z       0.1838
      3 C2         29.4851    6.2369  -44.2362 C.3         1 X8Z       0.0548
      4 C1         30.8937    6.6343  -43.6939 C.3         1 X8Z       0.0101
      5 S          32.3007    5.7083  -44.3562 S.3         1 X8Z      -0.1756
      6 C3         29.3404    6.4647  -45.7688 C.3         1 X8Z      -0.0446
      7 N          28.1066    4.5722  -42.9567 N.am        1 X8Z      -0.2572
      8 C8         27.6885    3.2183  -42.6505 C.3         1 X8Z       0.0971
      9 C9         27.2151    2.4035  -43.7969 C.2         1 X8Z       0.0603
     10 O3         26.6743    2.9758  -44.8957 O.co2       1 X8Z      -0.5666
     11 O2         27.0837    1.0656  -43.6538 O.co2       1 X8Z      -0.5666
     12 C5         27.4446    5.5373  -42.1240 C.3         1 X8Z       0.0362
     13 C6         26.8483    4.7339  -40.9588 C.3         1 X8Z      -0.0288
     14 C7         26.5679    3.3708  -41.5932 C.3         1 X8Z      -0.0159
     15 H1         28.7875    6.9538  -43.7953 H           1 X8Z       0.0543
     16 H2         30.9063    6.5036  -42.6096 H           1 X8Z       0.0401
     17 H3         31.0724    7.6942  -43.8872 H           1 X8Z       0.0401
     18 H4         32.2505    6.2995  -45.5802 H           1 X8Z       0.1018
     19 H5         28.3118    6.2717  -46.0785 H           1 X8Z       0.0257
     20 H6         29.9987    5.8028  -46.3334 H           1 X8Z       0.0257
     21 H7         29.5841    7.4963  -46.0262 H           1 X8Z       0.0257
     22 H8         28.5395    2.6965  -42.2011 H           1 X8Z       0.0728
     23 H9         26.6546    6.0356  -42.6923 H           1 X8Z       0.0524
     24 H10        28.1286    6.2858  -41.7171 H           1 X8Z       0.0524
     25 H11        25.9419    5.1966  -40.5611 H           1 X8Z       0.0286
     26 H12        27.5845    4.6256  -40.1552 H           1 X8Z       0.0286
     27 H13        26.5910    2.5712  -40.8506 H           1 X8Z       0.0306
     28 H14        25.5762    3.3978  -42.0559 H           1 X8Z       0.0306
@<TRIPOS>BOND
     1     1     2   2
     2     2     3   1
     3     2     7  am
     4     3     4   1
     5     3     6   1
     6     4     5   1
     7     7     8   1
     8     7    12   1
     9     8     9   1
    10     8    14   1
    11     9    10  ar
    12     9    11  ar
    13    12    13   1
    14    13    14   1
    15     3    15   1
    16     4    16   1
    17     4    17   1
    18     5    18   1
    19     6    19   1
    20     6    20   1
    21     6    21   1
    22     8    22   1
    23    12    23   1
    24    12    24   1
    25    13    25   1
    26    13    26   1
    27    14    27   1
    28    14    28   1
@<TRIPOS>SUBSTRUCTURE
     1  X8Z      2

