@<TRIPOS>MOLECULE
2x8z_ligand_085
    28    28
SMALL
GAST_HUCK
****
This file was generated by PARSER (from files_GN.cpp)

@<TRIPOS>ATOM
      1 O1         24.9000    7.5606  -36.0644 O.2         1 X8Z      -0.3964
      2 C4         25.5797    6.8182  -36.7619 C.2         1 X8Z       0.1838
      3 C2         24.8186    5.7965  -37.5141 C.3         1 X8Z       0.0548
      4 C1         24.2310    4.6825  -36.6023 C.3         1 X8Z       0.0101
      5 S          22.9536    5.2055  -35.4374 S.3         1 X8Z      -0.1756
      6 C3         23.7371    6.4022  -38.4591 C.3         1 X8Z      -0.0446
      7 N          26.9117    7.0182  -36.7901 N.am        1 X8Z      -0.2572
      8 C8         27.9037    6.1672  -37.4206 C.3         1 X8Z       0.0971
      9 C9         27.9505    4.8047  -36.8878 C.2         1 X8Z       0.0603
     10 O3         27.1312    3.8358  -37.3568 O.co2       1 X8Z      -0.5666
     11 O2         28.7453    4.4681  -35.8307 O.co2       1 X8Z      -0.5666
     12 C5         27.5034    8.2014  -36.2344 C.3         1 X8Z       0.0362
     13 C6         28.8710    8.3486  -36.9034 C.3         1 X8Z      -0.0288
     14 C7         29.2587    6.9090  -37.2389 C.3         1 X8Z      -0.0159
     15 H1         25.5010    5.2932  -38.2006 H           1 X8Z       0.0543
     16 H2         25.0321    4.2075  -36.0342 H           1 X8Z       0.0401
     17 H3         23.7776    3.9138  -37.2259 H           1 X8Z       0.0401
     18 H4         23.8414    5.4920  -34.4457 H           1 X8Z       0.1018
     19 H5         24.1878    7.1468  -39.1155 H           1 X8Z       0.0257
     20 H6         22.9297    6.8738  -37.8994 H           1 X8Z       0.0257
     21 H7         23.2950    5.6274  -39.0839 H           1 X8Z       0.0257
     22 H8         27.6896    6.1289  -38.4943 H           1 X8Z       0.0728
     23 H9         27.6081    8.0917  -35.1556 H           1 X8Z       0.0524
     24 H10        26.9110    9.1042  -36.4430 H           1 X8Z       0.0524
     25 H11        29.6002    8.8252  -36.2390 H           1 X8Z       0.0286
     26 H12        28.7901    8.9405  -37.8225 H           1 X8Z       0.0286
     27 H13        29.8766    6.8594  -38.1361 H           1 X8Z       0.0306
     28 H14        29.8404    6.5096  -36.4025 H           1 X8Z       0.0306
@<TRIPOS>BOND
     1     1     2   2
     2     2     3   1
     3     2     7  am
     4     3     4   1
     5     3     6   1
     6     4     5   1
     7     7     8   1
     8     7    12   1
     9     8     9   1
    10     8    14   1
    11     9    10  ar
    12     9    11  ar
    13    12    13   1
    14    13    14   1
    15     3    15   1
    16     4    16   1
    17     4    17   1
    18     5    18   1
    19     6    19   1
    20     6    20   1
    21     6    21   1
    22     8    22   1
    23    12    23   1
    24    12    24   1
    25    13    25   1
    26    13    26   1
    27    14    27   1
    28    14    28   1
@<TRIPOS>SUBSTRUCTURE
     1  X8Z      2

