@<TRIPOS>MOLECULE
2x8z_ligand_043
    28    28
SMALL
GAST_HUCK
****
This file was generated by PARSER (from files_GN.cpp)

@<TRIPOS>ATOM
      1 O1         27.4207   -4.7936  -47.7199 O.2         1 X8Z      -0.3964
      2 C4         26.9178   -3.7709  -47.2588 C.2         1 X8Z       0.1838
      3 C2         25.7237   -3.2963  -47.9935 C.3         1 X8Z       0.0548
      4 C1         24.3884   -3.4116  -47.1935 C.3         1 X8Z       0.0101
      5 S          24.0589   -5.0723  -46.5569 S.3         1 X8Z      -0.1756
      6 C3         25.8765   -1.8898  -48.6333 C.3         1 X8Z      -0.0446
      7 N          27.4441   -3.2931  -46.1113 N.am        1 X8Z      -0.2572
      8 C8         27.2422   -1.9907  -45.5195 C.3         1 X8Z       0.0971
      9 C9         27.8415   -0.8931  -46.3106 C.2         1 X8Z       0.0603
     10 O3         29.0787   -1.0465  -46.8355 O.co2       1 X8Z      -0.5666
     11 O2         27.4115    0.3716  -46.1028 O.co2       1 X8Z      -0.5666
     12 C5         28.2928   -4.1052  -45.2784 C.3         1 X8Z       0.0362
     13 C6         28.1210   -3.5393  -43.8632 C.3         1 X8Z      -0.0288
     14 C7         27.8960   -2.0464  -44.1116 C.3         1 X8Z      -0.0159
     15 H1         25.5779   -3.9580  -48.8590 H           1 X8Z       0.0543
     16 H2         23.5553   -3.1495  -47.8509 H           1 X8Z       0.0401
     17 H3         24.3687   -2.7177  -46.3560 H           1 X8Z       0.0401
     18 H4         22.8904   -4.6911  -45.9715 H           1 X8Z       0.1018
     19 H5         26.8723   -1.7684  -49.0655 H           1 X8Z       0.0257
     20 H6         25.7015   -1.1008  -47.9034 H           1 X8Z       0.0257
     21 H7         25.1449   -1.7603  -49.4350 H           1 X8Z       0.0257
     22 H8         26.1773   -1.7996  -45.3882 H           1 X8Z       0.0728
     23 H9         29.3312   -4.0154  -45.6101 H           1 X8Z       0.0524
     24 H10        28.0063   -5.1617  -45.2730 H           1 X8Z       0.0524
     25 H11        28.9986   -3.7263  -43.2399 H           1 X8Z       0.0286
     26 H12        27.2381   -3.9772  -43.3871 H           1 X8Z       0.0286
     27 H13        27.2462   -1.6133  -43.3457 H           1 X8Z       0.0306
     28 H14        28.8642   -1.5338  -44.0735 H           1 X8Z       0.0306
@<TRIPOS>BOND
     1     1     2   2
     2     2     3   1
     3     2     7  am
     4     3     4   1
     5     3     6   1
     6     4     5   1
     7     7     8   1
     8     7    12   1
     9     8     9   1
    10     8    14   1
    11     9    10  ar
    12     9    11  ar
    13    12    13   1
    14    13    14   1
    15     3    15   1
    16     4    16   1
    17     4    17   1
    18     5    18   1
    19     6    19   1
    20     6    20   1
    21     6    21   1
    22     8    22   1
    23    12    23   1
    24    12    24   1
    25    13    25   1
    26    13    26   1
    27    14    27   1
    28    14    28   1
@<TRIPOS>SUBSTRUCTURE
     1  X8Z      2

