@<TRIPOS>MOLECULE
2x8z_ligand_067
    28    28
SMALL
GAST_HUCK
****
This file was generated by PARSER (from files_GN.cpp)

@<TRIPOS>ATOM
      1 O1         25.9711    4.1797  -35.0418 O.2         1 X8Z      -0.3964
      2 C4         26.6007    5.1191  -35.5221 C.2         1 X8Z       0.1838
      3 C2         25.7721    6.1637  -36.1524 C.3         1 X8Z       0.0548
      4 C1         24.8932    5.6383  -37.3370 C.3         1 X8Z       0.0101
      5 S          23.3406    4.7910  -36.9244 S.3         1 X8Z      -0.1756
      6 C3         24.9575    6.9534  -35.0861 C.3         1 X8Z      -0.0446
      7 N          27.9519    5.1190  -35.4222 N.am        1 X8Z      -0.2572
      8 C8         28.7059    4.0773  -34.7475 C.3         1 X8Z       0.0971
      9 C9         28.3280    3.8199  -33.3393 C.2         1 X8Z       0.0603
     10 O3         27.3066    2.9564  -33.0566 O.co2       1 X8Z      -0.5666
     11 O2         28.8317    4.6006  -32.3457 O.co2       1 X8Z      -0.5666
     12 C5         28.8109    6.0759  -36.0566 C.3         1 X8Z       0.0362
     13 C6         30.2304    5.4674  -36.0552 C.3         1 X8Z      -0.0288
     14 C7         30.1980    4.5055  -34.8561 C.3         1 X8Z      -0.0159
     15 H1         26.4141    6.9235  -36.6029 H           1 X8Z       0.0543
     16 H2         25.4834    4.9763  -37.9718 H           1 X8Z       0.0401
     17 H3         24.6007    6.4847  -37.9617 H           1 X8Z       0.0401
     18 H4         23.9211    3.6673  -36.4500 H           1 X8Z       0.1018
     19 H5         25.6263    7.3645  -34.3237 H           1 X8Z       0.0257
     20 H6         24.2239    6.3107  -34.5873 H           1 X8Z       0.0257
     21 H7         24.4162    7.7864  -35.5514 H           1 X8Z       0.0257
     22 H8         28.5717    3.1510  -35.3106 H           1 X8Z       0.0728
     23 H9         28.7905    7.0128  -35.4841 H           1 X8Z       0.0524
     24 H10        28.5218    6.2765  -37.0986 H           1 X8Z       0.0524
     25 H11        30.9947    6.2332  -35.9489 H           1 X8Z       0.0286
     26 H12        30.4018    4.9155  -36.9864 H           1 X8Z       0.0286
     27 H13        30.8537    3.6506  -35.0313 H           1 X8Z       0.0306
     28 H14        30.5291    5.0353  -33.9482 H           1 X8Z       0.0306
@<TRIPOS>BOND
     1     1     2   2
     2     2     3   1
     3     2     7  am
     4     3     4   1
     5     3     6   1
     6     4     5   1
     7     7     8   1
     8     7    12   1
     9     8     9   1
    10     8    14   1
    11     9    10  ar
    12     9    11  ar
    13    12    13   1
    14    13    14   1
    15     3    15   1
    16     4    16   1
    17     4    17   1
    18     5    18   1
    19     6    19   1
    20     6    20   1
    21     6    21   1
    22     8    22   1
    23    12    23   1
    24    12    24   1
    25    13    25   1
    26    13    26   1
    27    14    27   1
    28    14    28   1
@<TRIPOS>SUBSTRUCTURE
     1  X8Z      2

