@<TRIPOS>MOLECULE
2x8z_ligand_062
    28    28
SMALL
GAST_HUCK
****
This file was generated by PARSER (from files_GN.cpp)

@<TRIPOS>ATOM
      1 O1         26.3594   -3.0140  -47.6846 O.2         1 X8Z      -0.3964
      2 C4         25.3921   -3.5944  -48.1694 C.2         1 X8Z       0.1838
      3 C2         24.1080   -2.8556  -48.1192 C.3         1 X8Z       0.0548
      4 C1         24.0378   -1.6642  -47.0981 C.3         1 X8Z       0.0101
      5 S          24.4086   -2.0959  -45.3816 S.3         1 X8Z      -0.1756
      6 C3         23.7386   -2.2842  -49.5195 C.3         1 X8Z      -0.0446
      7 N          25.6171   -4.7972  -48.7497 N.am        1 X8Z      -0.2572
      8 C8         24.6484   -5.6786  -49.3676 C.3         1 X8Z       0.0971
      9 C9         23.5281   -6.1062  -48.4913 C.2         1 X8Z       0.0603
     10 O3         23.7730   -6.6621  -47.2822 O.co2       1 X8Z      -0.5666
     11 O2         22.2413   -5.9009  -48.8686 O.co2       1 X8Z      -0.5666
     12 C5         26.9504   -5.3312  -48.8929 C.3         1 X8Z       0.0362
     13 C6         26.8705   -6.3964  -49.9995 C.3         1 X8Z      -0.0288
     14 C7         25.4422   -6.9149  -49.8584 C.3         1 X8Z      -0.0159
     15 H1         23.3153   -3.5436  -47.8196 H           1 X8Z       0.0543
     16 H2         23.0382   -1.2246  -47.1128 H           1 X8Z       0.0401
     17 H3         24.7400   -0.8805  -47.3983 H           1 X8Z       0.0401
     18 H4         23.3392   -2.9332  -45.2579 H           1 X8Z       0.1018
     19 H5         23.5716   -3.0817  -50.2455 H           1 X8Z       0.0257
     20 H6         24.5430   -1.6355  -49.8867 H           1 X8Z       0.0257
     21 H7         22.8114   -1.6993  -49.4650 H           1 X8Z       0.0257
     22 H8         24.2373   -5.1757  -50.2500 H           1 X8Z       0.0728
     23 H9         27.2636   -5.7774  -47.9428 H           1 X8Z       0.0524
     24 H10        27.6807   -4.5706  -49.1923 H           1 X8Z       0.0524
     25 H11        27.6221   -7.1747  -49.8662 H           1 X8Z       0.0286
     26 H12        27.0040   -5.9272  -50.9842 H           1 X8Z       0.0286
     27 H13        25.0710   -7.2985  -50.8124 H           1 X8Z       0.0306
     28 H14        25.4450   -7.7285  -49.1258 H           1 X8Z       0.0306
@<TRIPOS>BOND
     1     1     2   2
     2     2     3   1
     3     2     7  am
     4     3     4   1
     5     3     6   1
     6     4     5   1
     7     7     8   1
     8     7    12   1
     9     8     9   1
    10     8    14   1
    11     9    10  ar
    12     9    11  ar
    13    12    13   1
    14    13    14   1
    15     3    15   1
    16     4    16   1
    17     4    17   1
    18     5    18   1
    19     6    19   1
    20     6    20   1
    21     6    21   1
    22     8    22   1
    23    12    23   1
    24    12    24   1
    25    13    25   1
    26    13    26   1
    27    14    27   1
    28    14    28   1
@<TRIPOS>SUBSTRUCTURE
     1  X8Z      2

