@<TRIPOS>MOLECULE
2x8z_ligand_022
    28    28
SMALL
GAST_HUCK
****
This file was generated by PARSER (from files_GN.cpp)

@<TRIPOS>ATOM
      1 O1         28.7420    8.5846  -37.4842 O.2         1 X8Z      -0.3964
      2 C4         28.6986    7.3958  -37.7824 C.2         1 X8Z       0.1838
      3 C2         27.3572    6.7894  -37.8418 C.3         1 X8Z       0.0548
      4 C1         26.8255    6.4793  -36.4082 C.3         1 X8Z       0.0101
      5 S          25.6946    5.0660  -36.3790 S.3         1 X8Z      -0.1756
      6 C3         26.3715    7.6673  -38.6685 C.3         1 X8Z      -0.0446
      7 N          29.8598    6.7475  -37.9960 N.am        1 X8Z      -0.2572
      8 C8         31.1536    7.3894  -38.0783 C.3         1 X8Z       0.0971
      9 C9         31.2833    8.4408  -39.1163 C.2         1 X8Z       0.0603
     10 O3         32.4417    9.1304  -39.2154 O.co2       1 X8Z      -0.5666
     11 O2         30.4063    8.5192  -40.1441 O.co2       1 X8Z      -0.5666
     12 C5         29.9696    5.3213  -38.0775 C.3         1 X8Z       0.0362
     13 C6         31.4489    4.9978  -37.8334 C.3         1 X8Z      -0.0288
     14 C7         32.1629    6.2461  -38.3542 C.3         1 X8Z      -0.0159
     15 H1         27.4119    5.8395  -38.3781 H           1 X8Z       0.0543
     16 H2         26.3086    7.3508  -35.9973 H           1 X8Z       0.0401
     17 H3         27.6598    6.2302  -35.7452 H           1 X8Z       0.0401
     18 H4         25.4092    5.2049  -35.0559 H           1 X8Z       0.1018
     19 H5         26.7801    7.8768  -39.6598 H           1 X8Z       0.0257
     20 H6         26.1799    8.6165  -38.1658 H           1 X8Z       0.0257
     21 H7         25.4184    7.1529  -38.8000 H           1 X8Z       0.0257
     22 H8         31.3749    7.8345  -37.1024 H           1 X8Z       0.0728
     23 H9         29.6603    4.9909  -39.0729 H           1 X8Z       0.0524
     24 H10        29.3703    4.8123  -37.3173 H           1 X8Z       0.0524
     25 H11        31.7526    4.0881  -38.3560 H           1 X8Z       0.0286
     26 H12        31.6401    4.8793  -36.7634 H           1 X8Z       0.0286
     27 H13        33.1140    6.4124  -37.8419 H           1 X8Z       0.0306
     28 H14        32.3557    6.1150  -39.4249 H           1 X8Z       0.0306
@<TRIPOS>BOND
     1     1     2   2
     2     2     3   1
     3     2     7  am
     4     3     4   1
     5     3     6   1
     6     4     5   1
     7     7     8   1
     8     7    12   1
     9     8     9   1
    10     8    14   1
    11     9    10  ar
    12     9    11  ar
    13    12    13   1
    14    13    14   1
    15     3    15   1
    16     4    16   1
    17     4    17   1
    18     5    18   1
    19     6    19   1
    20     6    20   1
    21     6    21   1
    22     8    22   1
    23    12    23   1
    24    12    24   1
    25    13    25   1
    26    13    26   1
    27    14    27   1
    28    14    28   1
@<TRIPOS>SUBSTRUCTURE
     1  X8Z      2

