@<TRIPOS>MOLECULE
2x8z_ligand_071
    28    28
SMALL
GAST_HUCK
****
This file was generated by PARSER (from files_GN.cpp)

@<TRIPOS>ATOM
      1 O1         31.0738    7.4715  -36.9596 O.2         1 X8Z      -0.3964
      2 C4         30.1241    6.7540  -37.2637 C.2         1 X8Z       0.1838
      3 C2         30.2731    5.3348  -36.8915 C.3         1 X8Z       0.0548
      4 C1         31.6135    4.7383  -37.4409 C.3         1 X8Z       0.0101
      5 S          32.1898    3.1837  -36.7132 S.3         1 X8Z      -0.1756
      6 C3         30.0893    5.1916  -35.3543 C.3         1 X8Z      -0.0446
      7 N          29.0350    7.3285  -37.8080 N.am        1 X8Z      -0.2572
      8 C8         28.9058    8.7541  -38.0159 C.3         1 X8Z       0.0971
      9 C9         29.1268    9.5808  -36.8069 C.2         1 X8Z       0.0603
     10 O3         30.3202   10.1817  -36.5938 O.co2       1 X8Z      -0.5666
     11 O2         28.1832    9.6673  -35.8410 O.co2       1 X8Z      -0.5666
     12 C5         27.9023    6.6068  -38.3161 C.3         1 X8Z       0.0362
     13 C6         27.1189    7.6082  -39.1776 C.3         1 X8Z      -0.0288
     14 C7         27.4797    8.9697  -38.5830 C.3         1 X8Z      -0.0159
     15 H1         29.4715    4.7396  -37.3282 H           1 X8Z       0.0543
     16 H2         32.4325    5.4421  -37.3011 H           1 X8Z       0.0401
     17 H3         31.5048    4.5674  -38.5162 H           1 X8Z       0.0401
     18 H4         30.9658    2.5754  -36.8685 H           1 X8Z       0.1018
     19 H5         29.1817    5.7108  -35.0220 H           1 X8Z       0.0257
     20 H6         30.9468    5.6156  -34.8272 H           1 X8Z       0.0257
     21 H7         30.0002    4.1290  -35.0871 H           1 X8Z       0.0257
     22 H8         29.6324    9.0425  -38.7859 H           1 X8Z       0.0728
     23 H9         27.2919    6.2408  -37.4861 H           1 X8Z       0.0524
     24 H10        28.2085    5.7658  -38.9440 H           1 X8Z       0.0524
     25 H11        26.0423    7.4160  -39.1445 H           1 X8Z       0.0286
     26 H12        27.4615    7.5569  -40.2155 H           1 X8Z       0.0286
     27 H13        27.4611    9.7578  -39.3401 H           1 X8Z       0.0306
     28 H14        26.7569    9.2148  -37.7971 H           1 X8Z       0.0306
@<TRIPOS>BOND
     1     1     2   2
     2     2     3   1
     3     2     7  am
     4     3     4   1
     5     3     6   1
     6     4     5   1
     7     7     8   1
     8     7    12   1
     9     8     9   1
    10     8    14   1
    11     9    10  ar
    12     9    11  ar
    13    12    13   1
    14    13    14   1
    15     3    15   1
    16     4    16   1
    17     4    17   1
    18     5    18   1
    19     6    19   1
    20     6    20   1
    21     6    21   1
    22     8    22   1
    23    12    23   1
    24    12    24   1
    25    13    25   1
    26    13    26   1
    27    14    27   1
    28    14    28   1
@<TRIPOS>SUBSTRUCTURE
     1  X8Z      2

