@<TRIPOS>MOLECULE
2x8z_ligand_045
    28    28
SMALL
GAST_HUCK
****
This file was generated by PARSER (from files_GN.cpp)

@<TRIPOS>ATOM
      1 O1         30.6318    7.1557  -36.7047 O.2         1 X8Z      -0.3964
      2 C4         29.5205    7.5456  -37.0648 C.2         1 X8Z       0.1838
      3 C2         29.4379    8.9606  -37.4794 C.3         1 X8Z       0.0548
      4 C1         29.6618    9.8988  -36.2489 C.3         1 X8Z       0.0101
      5 S          29.4933   11.6761  -36.5576 S.3         1 X8Z      -0.1756
      6 C3         30.4139    9.2417  -38.6653 C.3         1 X8Z      -0.0446
      7 N          28.5006    6.6636  -37.0437 N.am        1 X8Z      -0.2572
      8 C8         27.0971    6.9567  -37.2616 C.3         1 X8Z       0.0971
      9 C9         26.5258    7.9852  -36.3693 C.2         1 X8Z       0.0603
     10 O3         26.1188    7.6728  -35.1062 O.co2       1 X8Z      -0.5666
     11 O2         26.3236    9.2478  -36.8219 O.co2       1 X8Z      -0.5666
     12 C5         28.7288    5.2569  -36.8778 C.3         1 X8Z       0.0362
     13 C6         27.4570    4.5489  -37.3681 C.3         1 X8Z      -0.0288
     14 C7         26.3665    5.5955  -37.1178 C.3         1 X8Z      -0.0159
     15 H1         28.4306    9.1688  -37.8635 H           1 X8Z       0.0543
     16 H2         30.6619    9.7398  -35.8395 H           1 X8Z       0.0401
     17 H3         28.9295    9.6379  -35.4805 H           1 X8Z       0.0401
     18 H4         28.6141   11.5534  -37.6005 H           1 X8Z       0.1018
     19 H5         30.2701    8.5045  -39.4624 H           1 X8Z       0.0257
     20 H6         31.4589    9.2009  -38.3446 H           1 X8Z       0.0257
     21 H7         30.2149   10.2303  -39.0828 H           1 X8Z       0.0257
     22 H8         26.9867    7.2883  -38.2995 H           1 X8Z       0.0728
     23 H9         28.9073    5.0345  -35.8195 H           1 X8Z       0.0524
     24 H10        29.5810    4.8948  -37.4651 H           1 X8Z       0.0524
     25 H11        27.2789    3.6200  -36.8214 H           1 X8Z       0.0286
     26 H12        27.5308    4.3232  -38.4360 H           1 X8Z       0.0286
     27 H13        25.5436    5.4915  -37.8325 H           1 X8Z       0.0306
     28 H14        25.9767    5.4577  -36.1012 H           1 X8Z       0.0306
@<TRIPOS>BOND
     1     1     2   2
     2     2     3   1
     3     2     7  am
     4     3     4   1
     5     3     6   1
     6     4     5   1
     7     7     8   1
     8     7    12   1
     9     8     9   1
    10     8    14   1
    11     9    10  ar
    12     9    11  ar
    13    12    13   1
    14    13    14   1
    15     3    15   1
    16     4    16   1
    17     4    17   1
    18     5    18   1
    19     6    19   1
    20     6    20   1
    21     6    21   1
    22     8    22   1
    23    12    23   1
    24    12    24   1
    25    13    25   1
    26    13    26   1
    27    14    27   1
    28    14    28   1
@<TRIPOS>SUBSTRUCTURE
     1  X8Z      2

