@<TRIPOS>MOLECULE
2x8z_ligand_089
    28    28
SMALL
GAST_HUCK
****
This file was generated by PARSER (from files_GN.cpp)

@<TRIPOS>ATOM
      1 O1         27.7520    6.6893  -38.5759 O.2         1 X8Z      -0.3964
      2 C4         28.8892    6.9903  -38.9367 C.2         1 X8Z       0.1838
      3 C2         29.9036    5.9864  -38.5488 C.3         1 X8Z       0.0548
      4 C1         31.0024    5.5967  -39.5861 C.3         1 X8Z       0.0101
      5 S          30.3753    5.2400  -41.2457 S.3         1 X8Z      -0.1756
      6 C3         30.5140    6.2985  -37.1541 C.3         1 X8Z      -0.0446
      7 N          29.0276    8.1582  -39.6030 N.am        1 X8Z      -0.2572
      8 C8         30.2397    8.8129  -40.0290 C.3         1 X8Z       0.0971
      9 C9         31.1789    9.1487  -38.9384 C.2         1 X8Z       0.0603
     10 O3         30.7584    9.8443  -37.8548 O.co2       1 X8Z      -0.5666
     11 O2         32.5007    8.8768  -39.0515 O.co2       1 X8Z      -0.5666
     12 C5         27.8713    8.8912  -40.0579 C.3         1 X8Z       0.0362
     13 C6         28.3608    9.8334  -41.1665 C.3         1 X8Z      -0.0288
     14 C7         29.8045   10.1132  -40.7549 C.3         1 X8Z      -0.0159
     15 H1         29.3687    5.0359  -38.3964 H           1 X8Z       0.0543
     16 H2         31.5259    4.7013  -39.2388 H           1 X8Z       0.0401
     17 H3         31.7507    6.3799  -39.6644 H           1 X8Z       0.0401
     18 H4         29.6850    4.1297  -40.8533 H           1 X8Z       0.1018
     19 H5         29.7277    6.5181  -36.4289 H           1 X8Z       0.0257
     20 H6         31.1950    7.1394  -37.1952 H           1 X8Z       0.0257
     21 H7         31.0737    5.4305  -36.7878 H           1 X8Z       0.0257
     22 H8         30.7476    8.1892  -40.7681 H           1 X8Z       0.0728
     23 H9         27.4400    9.4598  -39.2272 H           1 X8Z       0.0524
     24 H10        27.0968    8.2362  -40.4786 H           1 X8Z       0.0524
     25 H11        27.7615   10.7474  -41.2189 H           1 X8Z       0.0286
     26 H12        28.3364    9.3279  -42.1366 H           1 X8Z       0.0286
     27 H13        30.4323   10.3245  -41.6235 H           1 X8Z       0.0306
     28 H14        29.8105   10.9897  -40.0979 H           1 X8Z       0.0306
@<TRIPOS>BOND
     1     1     2   2
     2     2     3   1
     3     2     7  am
     4     3     4   1
     5     3     6   1
     6     4     5   1
     7     7     8   1
     8     7    12   1
     9     8     9   1
    10     8    14   1
    11     9    10  ar
    12     9    11  ar
    13    12    13   1
    14    13    14   1
    15     3    15   1
    16     4    16   1
    17     4    17   1
    18     5    18   1
    19     6    19   1
    20     6    20   1
    21     6    21   1
    22     8    22   1
    23    12    23   1
    24    12    24   1
    25    13    25   1
    26    13    26   1
    27    14    27   1
    28    14    28   1
@<TRIPOS>SUBSTRUCTURE
     1  X8Z      2

