@<TRIPOS>MOLECULE
2x8z_ligand_056
    28    28
SMALL
GAST_HUCK
****
This file was generated by PARSER (from files_GN.cpp)

@<TRIPOS>ATOM
      1 O1         27.5716   -1.2425  -45.4914 O.2         1 X8Z      -0.3964
      2 C4         26.7545   -1.9584  -44.9227 C.2         1 X8Z       0.1838
      3 C2         25.4032   -1.3877  -44.8091 C.3         1 X8Z       0.0548
      4 C1         25.3531   -0.0838  -43.9503 C.3         1 X8Z       0.0101
      5 S          26.0620    1.4021  -44.7041 S.3         1 X8Z      -0.1756
      6 C3         24.7354   -1.2331  -46.2055 C.3         1 X8Z      -0.0446
      7 N          27.1347   -3.1892  -44.5144 N.am        1 X8Z      -0.2572
      8 C8         26.3180   -4.1582  -43.8130 C.3         1 X8Z       0.0971
      9 C9         25.7529   -3.7244  -42.5111 C.2         1 X8Z       0.0603
     10 O3         26.3439   -2.7581  -41.7735 O.co2       1 X8Z      -0.5666
     11 O2         24.6912   -4.3794  -41.9844 O.co2       1 X8Z      -0.5666
     12 C5         28.4288   -3.7308  -44.8390 C.3         1 X8Z       0.0362
     13 C6         28.3070   -5.2528  -44.6705 C.3         1 X8Z      -0.0288
     14 C7         27.2224   -5.4011  -43.6021 C.3         1 X8Z      -0.0159
     15 H1         24.7606   -2.0942  -44.2888 H           1 X8Z       0.0543
     16 H2         25.8620   -0.2519  -42.9982 H           1 X8Z       0.0401
     17 H3         24.3096    0.1438  -43.7269 H           1 X8Z       0.0401
     18 H4         25.4578    2.2387  -43.8184 H           1 X8Z       0.1018
     19 H5         24.7416   -2.1872  -46.7357 H           1 X8Z       0.0257
     20 H6         25.2610   -0.5060  -46.8223 H           1 X8Z       0.0257
     21 H7         23.6990   -0.9061  -46.0980 H           1 X8Z       0.0257
     22 H8         25.4897   -4.4370  -44.4733 H           1 X8Z       0.0728
     23 H9         29.1802   -3.3243  -44.1570 H           1 X8Z       0.0524
     24 H10        28.7229   -3.5164  -45.8693 H           1 X8Z       0.0524
     25 H11        29.2543   -5.7056  -44.3676 H           1 X8Z       0.0286
     26 H12        27.9755   -5.7122  -45.6065 H           1 X8Z       0.0286
     27 H13        26.6721   -6.3395  -43.7209 H           1 X8Z       0.0306
     28 H14        27.7022   -5.3981  -42.6164 H           1 X8Z       0.0306
@<TRIPOS>BOND
     1     1     2   2
     2     2     3   1
     3     2     7  am
     4     3     4   1
     5     3     6   1
     6     4     5   1
     7     7     8   1
     8     7    12   1
     9     8     9   1
    10     8    14   1
    11     9    10  ar
    12     9    11  ar
    13    12    13   1
    14    13    14   1
    15     3    15   1
    16     4    16   1
    17     4    17   1
    18     5    18   1
    19     6    19   1
    20     6    20   1
    21     6    21   1
    22     8    22   1
    23    12    23   1
    24    12    24   1
    25    13    25   1
    26    13    26   1
    27    14    27   1
    28    14    28   1
@<TRIPOS>SUBSTRUCTURE
     1  X8Z      2

