@<TRIPOS>MOLECULE
2x8z_ligand_038
    28    28
SMALL
GAST_HUCK
****
This file was generated by PARSER (from files_GN.cpp)

@<TRIPOS>ATOM
      1 O1         30.6170    4.6006  -38.1932 O.2         1 X8Z      -0.3964
      2 C4         29.6538    5.3275  -37.9618 C.2         1 X8Z       0.1838
      3 C2         29.3294    5.5640  -36.5439 C.3         1 X8Z       0.0548
      4 C1         28.1353    4.6844  -36.0356 C.3         1 X8Z       0.0101
      5 S          28.5357    3.2533  -34.9857 S.3         1 X8Z      -0.1756
      6 C3         30.5837    5.5003  -35.6091 C.3         1 X8Z      -0.0446
      7 N          28.9786    5.8458  -39.0076 N.am        1 X8Z      -0.2572
      8 C8         29.3813    5.6879  -40.3908 C.3         1 X8Z       0.0971
      9 C9         30.7226    6.2576  -40.6680 C.2         1 X8Z       0.0603
     10 O3         30.9114    7.5975  -40.6239 O.co2       1 X8Z      -0.5666
     11 O2         31.8154    5.4600  -40.7081 O.co2       1 X8Z      -0.5666
     12 C5         27.7611    6.6071  -38.8975 C.3         1 X8Z       0.0362
     13 C6         27.0839    6.4867  -40.2730 C.3         1 X8Z      -0.0288
     14 C7         28.2766    6.3831  -41.2363 C.3         1 X8Z      -0.0159
     15 H1         29.0022    6.6116  -36.4652 H           1 X8Z       0.0543
     16 H2         27.5397    4.3120  -36.8772 H           1 X8Z       0.0401
     17 H3         27.4735    5.3185  -35.4324 H           1 X8Z       0.0401
     18 H4         29.2200    2.6324  -35.9880 H           1 X8Z       0.1018
     19 H5         31.3117    6.2617  -35.9098 H           1 X8Z       0.0257
     20 H6         31.0650    4.5189  -35.6599 H           1 X8Z       0.0257
     21 H7         30.2774    5.6843  -34.5805 H           1 X8Z       0.0257
     22 H8         29.3720    4.6179  -40.6372 H           1 X8Z       0.0728
     23 H9         28.0062    7.6565  -38.6807 H           1 X8Z       0.0524
     24 H10        27.0777    6.2261  -38.1301 H           1 X8Z       0.0524
     25 H11        26.4488    7.3516  -40.4871 H           1 X8Z       0.0286
     26 H12        26.4850    5.5717  -40.3183 H           1 X8Z       0.0286
     27 H13        28.0174    5.8077  -42.1295 H           1 X8Z       0.0306
     28 H14        28.5709    7.3957  -41.5390 H           1 X8Z       0.0306
@<TRIPOS>BOND
     1     1     2   2
     2     2     3   1
     3     2     7  am
     4     3     4   1
     5     3     6   1
     6     4     5   1
     7     7     8   1
     8     7    12   1
     9     8     9   1
    10     8    14   1
    11     9    10  ar
    12     9    11  ar
    13    12    13   1
    14    13    14   1
    15     3    15   1
    16     4    16   1
    17     4    17   1
    18     5    18   1
    19     6    19   1
    20     6    20   1
    21     6    21   1
    22     8    22   1
    23    12    23   1
    24    12    24   1
    25    13    25   1
    26    13    26   1
    27    14    27   1
    28    14    28   1
@<TRIPOS>SUBSTRUCTURE
     1  X8Z      2

