@<TRIPOS>MOLECULE
2x8z_ligand_011
    28    28
SMALL
GAST_HUCK
****
This file was generated by PARSER (from files_GN.cpp)

@<TRIPOS>ATOM
      1 O1         28.5420    6.2223  -38.9088 O.2         1 X8Z      -0.3964
      2 C4         29.4030    5.5992  -39.5226 C.2         1 X8Z       0.1838
      3 C2         30.7203    5.5329  -38.8622 C.3         1 X8Z       0.0548
      4 C1         31.6294    6.7657  -39.1819 C.3         1 X8Z       0.0101
      5 S          31.5679    8.1829  -38.0506 S.3         1 X8Z      -0.1756
      6 C3         30.6306    5.2364  -37.3296 C.3         1 X8Z      -0.0446
      7 N          29.0757    5.0463  -40.7116 N.am        1 X8Z      -0.2572
      8 C8         29.9758    4.4182  -41.6510 C.3         1 X8Z       0.0971
      9 C9         31.1314    5.2516  -42.0627 C.2         1 X8Z       0.0603
     10 O3         32.3856    4.8943  -41.6880 O.co2       1 X8Z      -0.5666
     11 O2         30.9535    6.4300  -42.7017 O.co2       1 X8Z      -0.5666
     12 C5         27.7090    4.9829  -41.1649 C.3         1 X8Z       0.0362
     13 C6         27.6956    3.9767  -42.3294 C.3         1 X8Z      -0.0288
     14 C7         29.1148    4.0471  -42.8816 C.3         1 X8Z      -0.0159
     15 H1         31.2459    4.6592  -39.2546 H           1 X8Z       0.0543
     16 H2         31.4029    7.1461  -40.1787 H           1 X8Z       0.0401
     17 H3         32.6701    6.4226  -39.1953 H           1 X8Z       0.0401
     18 H4         30.2164    8.1297  -37.8852 H           1 X8Z       0.1018
     19 H5         30.0958    4.3026  -37.1528 H           1 X8Z       0.0257
     20 H6         30.1078    6.0395  -36.7982 H           1 X8Z       0.0257
     21 H7         31.6298    5.1383  -36.9024 H           1 X8Z       0.0257
     22 H8         30.3521    3.4923  -41.2044 H           1 X8Z       0.0728
     23 H9         27.3922    5.9699  -41.5019 H           1 X8Z       0.0524
     24 H10        27.0394    4.6352  -40.3768 H           1 X8Z       0.0524
     25 H11        26.9463    4.2390  -43.0780 H           1 X8Z       0.0286
     26 H12        27.4935    2.9675  -41.9540 H           1 X8Z       0.0286
     27 H13        29.4208    3.0924  -43.3218 H           1 X8Z       0.0306
     28 H14        29.1484    4.8187  -43.6591 H           1 X8Z       0.0306
@<TRIPOS>BOND
     1     1     2   2
     2     2     3   1
     3     2     7  am
     4     3     4   1
     5     3     6   1
     6     4     5   1
     7     7     8   1
     8     7    12   1
     9     8     9   1
    10     8    14   1
    11     9    10  ar
    12     9    11  ar
    13    12    13   1
    14    13    14   1
    15     3    15   1
    16     4    16   1
    17     4    17   1
    18     5    18   1
    19     6    19   1
    20     6    20   1
    21     6    21   1
    22     8    22   1
    23    12    23   1
    24    12    24   1
    25    13    25   1
    26    13    26   1
    27    14    27   1
    28    14    28   1
@<TRIPOS>SUBSTRUCTURE
     1  X8Z      2

