@<TRIPOS>MOLECULE
2x8z_ligand_001
    28    28
SMALL
GAST_HUCK
****
This file was generated by PARSER (from files_GN.cpp)

@<TRIPOS>ATOM
      1 O1         25.8286    7.5989  -34.4012 O.2         1 X8Z      -0.3964
      2 C4         25.8618    6.6205  -35.1433 C.2         1 X8Z       0.1838
      3 C2         27.1691    5.9321  -35.1649 C.3         1 X8Z       0.0548
      4 C1         27.1245    4.3984  -35.4893 C.3         1 X8Z       0.0101
      5 S          28.3432    3.4304  -34.5575 S.3         1 X8Z      -0.1756
      6 C3         28.2391    6.6915  -36.0004 C.3         1 X8Z      -0.0446
      7 N          24.7102    6.3177  -35.7751 N.am        1 X8Z      -0.2572
      8 C8         24.5305    5.4245  -36.8999 C.3         1 X8Z       0.0971
      9 C9         25.3515    5.7615  -38.0787 C.2         1 X8Z       0.0603
     10 O3         26.1418    4.8342  -38.6529 O.co2       1 X8Z      -0.5666
     11 O2         25.2781    6.9951  -38.6316 O.co2       1 X8Z      -0.5666
     12 C5         23.4525    6.8526  -35.3158 C.3         1 X8Z       0.0362
     13 C6         22.3647    6.0094  -35.9868 C.3         1 X8Z      -0.0288
     14 C7         23.0302    5.5166  -37.2701 C.3         1 X8Z      -0.0159
     15 H1         27.5533    5.9840  -34.1363 H           1 X8Z       0.0543
     16 H2         27.3255    4.2214  -36.5446 H           1 X8Z       0.0401
     17 H3         26.1364    3.9942  -35.2420 H           1 X8Z       0.0401
     18 H4         27.5682    3.4132  -33.4258 H           1 X8Z       0.1018
     19 H5         28.2198    7.7613  -35.7687 H           1 X8Z       0.0257
     20 H6         28.0864    6.5595  -37.0705 H           1 X8Z       0.0257
     21 H7         29.2430    6.3196  -35.7529 H           1 X8Z       0.0257
     22 H8         24.7330    4.3990  -36.5750 H           1 X8Z       0.0728
     23 H9         23.3617    7.9017  -35.5958 H           1 X8Z       0.0524
     24 H10        23.3480    6.7705  -34.2301 H           1 X8Z       0.0524
     25 H11        21.4602    6.5897  -36.1888 H           1 X8Z       0.0286
     26 H12        22.1197    5.1569  -35.3419 H           1 X8Z       0.0286
     27 H13        22.6265    4.5531  -37.5862 H           1 X8Z       0.0306
     28 H14        22.8425    6.2513  -38.0570 H           1 X8Z       0.0306
@<TRIPOS>BOND
     1     1     2   2
     2     2     3   1
     3     2     7  am
     4     3     4   1
     5     3     6   1
     6     4     5   1
     7     7     8   1
     8     7    12   1
     9     8     9   1
    10     8    14   1
    11     9    10  ar
    12     9    11  ar
    13    12    13   1
    14    13    14   1
    15     3    15   1
    16     4    16   1
    17     4    17   1
    18     5    18   1
    19     6    19   1
    20     6    20   1
    21     6    21   1
    22     8    22   1
    23    12    23   1
    24    12    24   1
    25    13    25   1
    26    13    26   1
    27    14    27   1
    28    14    28   1
@<TRIPOS>SUBSTRUCTURE
     1  X8Z      2

