@<TRIPOS>MOLECULE
2x8z_ligand_017
    28    28
SMALL
GAST_HUCK
****
This file was generated by PARSER (from files_GN.cpp)

@<TRIPOS>ATOM
      1 O1         32.1992    8.1973  -37.7099 O.2         1 X8Z      -0.3964
      2 C4         30.9818    8.3274  -37.8259 C.2         1 X8Z       0.1838
      3 C2         30.5597    9.5983  -38.4561 C.3         1 X8Z       0.0548
      4 C1         29.3379    9.4856  -39.4243 C.3         1 X8Z       0.0101
      5 S          29.4834   10.4650  -40.9448 S.3         1 X8Z      -0.1756
      6 C3         30.3994   10.7175  -37.3899 C.3         1 X8Z      -0.0446
      7 N          30.2008    7.3304  -37.3495 N.am        1 X8Z      -0.2572
      8 C8         30.7381    6.0950  -36.7997 C.3         1 X8Z       0.0971
      9 C9         31.6351    5.3187  -37.6905 C.2         1 X8Z       0.0603
     10 O3         31.6736    5.5437  -39.0240 O.co2       1 X8Z      -0.5666
     11 O2         32.2975    4.2451  -37.2009 O.co2       1 X8Z      -0.5666
     12 C5         28.7735    7.3877  -37.2182 C.3         1 X8Z       0.0362
     13 C6         28.4017    6.2863  -36.2078 C.3         1 X8Z      -0.0288
     14 C7         29.5105    5.2446  -36.3980 C.3         1 X8Z      -0.0159
     15 H1         31.3920    9.9339  -39.0931 H           1 X8Z       0.0543
     16 H2         28.4118    9.7875  -38.9259 H           1 X8Z       0.0401
     17 H3         29.2252    8.4440  -39.7451 H           1 X8Z       0.0401
     18 H4         28.7171   11.4961  -40.5011 H           1 X8Z       0.1018
     19 H5         31.3201   10.8059  -36.7996 H           1 X8Z       0.0257
     20 H6         29.5720   10.5103  -36.7093 H           1 X8Z       0.0257
     21 H7         30.2146   11.6788  -37.8714 H           1 X8Z       0.0257
     22 H8         31.2993    6.3538  -35.8931 H           1 X8Z       0.0728
     23 H9         28.3084    7.1938  -38.1907 H           1 X8Z       0.0524
     24 H10        28.4243    8.3455  -36.8230 H           1 X8Z       0.0524
     25 H11        27.4093    5.8686  -36.4057 H           1 X8Z       0.0286
     26 H12        28.4371    6.6815  -35.1847 H           1 X8Z       0.0286
     27 H13        29.6903    4.6809  -35.4739 H           1 X8Z       0.0306
     28 H14        29.2118    4.5475  -37.1921 H           1 X8Z       0.0306
@<TRIPOS>BOND
     1     1     2   2
     2     2     3   1
     3     2     7  am
     4     3     4   1
     5     3     6   1
     6     4     5   1
     7     7     8   1
     8     7    12   1
     9     8     9   1
    10     8    14   1
    11     9    10  ar
    12     9    11  ar
    13    12    13   1
    14    13    14   1
    15     3    15   1
    16     4    16   1
    17     4    17   1
    18     5    18   1
    19     6    19   1
    20     6    20   1
    21     6    21   1
    22     8    22   1
    23    12    23   1
    24    12    24   1
    25    13    25   1
    26    13    26   1
    27    14    27   1
    28    14    28   1
@<TRIPOS>SUBSTRUCTURE
     1  X8Z      2

