@<TRIPOS>MOLECULE
2x8z_ligand_046
    28    28
SMALL
GAST_HUCK
****
This file was generated by PARSER (from files_GN.cpp)

@<TRIPOS>ATOM
      1 O1         25.4241   11.3459  -46.0754 O.2         1 X8Z      -0.3964
      2 C4         26.5869   11.3660  -45.6755 C.2         1 X8Z       0.1838
      3 C2         27.0800   12.7025  -45.2953 C.3         1 X8Z       0.0548
      4 C1         27.7333   12.8149  -43.8677 C.3         1 X8Z       0.0101
      5 S          27.0864   11.6731  -42.6185 S.3         1 X8Z      -0.1756
      6 C3         27.9189   13.4088  -46.3989 C.3         1 X8Z      -0.0446
      7 N          27.2069   10.1848  -45.5140 N.am        1 X8Z      -0.2572
      8 C8         28.6248    9.9307  -45.3489 C.3         1 X8Z       0.0971
      9 C9         29.3972   10.3190  -46.5474 C.2         1 X8Z       0.0603
     10 O3         29.2482    9.6659  -47.7413 O.co2       1 X8Z      -0.5666
     11 O2         30.3585   11.2601  -46.4426 O.co2       1 X8Z      -0.5666
     12 C5         26.4628    8.9555  -45.4411 C.3         1 X8Z       0.0362
     13 C6         27.3419    7.9991  -44.6294 C.3         1 X8Z      -0.0288
     14 C7         28.7577    8.4200  -45.0380 C.3         1 X8Z      -0.0159
     15 H1         26.1932   13.3452  -45.2028 H           1 X8Z       0.0543
     16 H2         27.5939   13.8360  -43.4830 H           1 X8Z       0.0401
     17 H3         28.8220   12.6725  -43.9265 H           1 X8Z       0.0401
     18 H4         25.9363   12.3804  -42.3804 H           1 X8Z       0.1018
     19 H5         27.4949   13.1884  -47.3870 H           1 X8Z       0.0257
     20 H6         28.9642   13.0599  -46.3575 H           1 X8Z       0.0257
     21 H7         27.9172   14.4981  -46.2381 H           1 X8Z       0.0257
     22 H8         28.9939   10.4696  -44.4664 H           1 X8Z       0.0728
     23 H9         26.2907    8.5619  -46.4447 H           1 X8Z       0.0524
     24 H10        25.5083    9.0837  -44.9249 H           1 X8Z       0.0524
     25 H11        27.1209    6.9555  -44.8588 H           1 X8Z       0.0286
     26 H12        27.1764    8.1745  -43.5593 H           1 X8Z       0.0286
     27 H13        29.4554    8.2236  -44.2192 H           1 X8Z       0.0306
     28 H14        29.0768    7.8479  -45.9165 H           1 X8Z       0.0306
@<TRIPOS>BOND
     1     1     2   2
     2     2     3   1
     3     2     7  am
     4     3     4   1
     5     3     6   1
     6     4     5   1
     7     7     8   1
     8     7    12   1
     9     8     9   1
    10     8    14   1
    11     9    10  ar
    12     9    11  ar
    13    12    13   1
    14    13    14   1
    15     3    15   1
    16     4    16   1
    17     4    17   1
    18     5    18   1
    19     6    19   1
    20     6    20   1
    21     6    21   1
    22     8    22   1
    23    12    23   1
    24    12    24   1
    25    13    25   1
    26    13    26   1
    27    14    27   1
    28    14    28   1
@<TRIPOS>SUBSTRUCTURE
     1  X8Z      2

