@<TRIPOS>MOLECULE
2x8z_ligand_080
    28    28
SMALL
GAST_HUCK
****
This file was generated by PARSER (from files_GN.cpp)

@<TRIPOS>ATOM
      1 O1         28.3570    6.5482  -37.7952 O.2         1 X8Z      -0.3964
      2 C4         29.4679    6.1266  -38.1093 C.2         1 X8Z       0.1838
      3 C2         30.5200    6.2901  -37.0880 C.3         1 X8Z       0.0548
      4 C1         30.8169    7.7940  -36.7993 C.3         1 X8Z       0.0101
      5 S          31.4542    8.6752  -38.2483 S.3         1 X8Z      -0.1756
      6 C3         30.1336    5.5304  -35.7848 C.3         1 X8Z      -0.0446
      7 N          29.6401    5.6187  -39.3451 N.am        1 X8Z      -0.2572
      8 C8         28.5608    5.4637  -40.3000 C.3         1 X8Z       0.0971
      9 C9         27.3777    4.6656  -39.8841 C.2         1 X8Z       0.0603
     10 O3         27.2812    4.0831  -38.6651 O.co2       1 X8Z      -0.5666
     11 O2         26.3567    4.4977  -40.7582 O.co2       1 X8Z      -0.5666
     12 C5         30.9172    5.2890  -39.9138 C.3         1 X8Z       0.0362
     13 C6         30.6890    5.1931  -41.4345 C.3         1 X8Z      -0.0288
     14 C7         29.2062    4.8243  -41.5551 C.3         1 X8Z      -0.0159
     15 H1         31.4587    5.8284  -37.4079 H           1 X8Z       0.0543
     16 H2         31.5751    7.8752  -36.0163 H           1 X8Z       0.0401
     17 H3         29.9094    8.2960  -36.4475 H           1 X8Z       0.0401
     18 H4         31.4372    9.8805  -37.6047 H           1 X8Z       0.1018
     19 H5         29.9213    4.4796  -35.9990 H           1 X8Z       0.0257
     20 H6         29.2567    5.9751  -35.3107 H           1 X8Z       0.0257
     21 H7         30.9615    5.5648  -35.0646 H           1 X8Z       0.0257
     22 H8         28.2100    6.4707  -40.5571 H           1 X8Z       0.0728
     23 H9         31.2771    4.3336  -39.5147 H           1 X8Z       0.0524
     24 H10        31.6627    6.0649  -39.7268 H           1 X8Z       0.0524
     25 H11        31.3396    4.4455  -41.9067 H           1 X8Z       0.0286
     26 H12        30.8648    6.1755  -41.8991 H           1 X8Z       0.0286
     27 H13        28.7734    5.2121  -42.4832 H           1 X8Z       0.0306
     28 H14        29.1234    3.7340  -41.5449 H           1 X8Z       0.0306
@<TRIPOS>BOND
     1     1     2   2
     2     2     3   1
     3     2     7  am
     4     3     4   1
     5     3     6   1
     6     4     5   1
     7     7     8   1
     8     7    12   1
     9     8     9   1
    10     8    14   1
    11     9    10  ar
    12     9    11  ar
    13    12    13   1
    14    13    14   1
    15     3    15   1
    16     4    16   1
    17     4    17   1
    18     5    18   1
    19     6    19   1
    20     6    20   1
    21     6    21   1
    22     8    22   1
    23    12    23   1
    24    12    24   1
    25    13    25   1
    26    13    26   1
    27    14    27   1
    28    14    28   1
@<TRIPOS>SUBSTRUCTURE
     1  X8Z      2

