@<TRIPOS>MOLECULE
2x8z_ligand_064
    28    28
SMALL
GAST_HUCK
****
This file was generated by PARSER (from files_GN.cpp)

@<TRIPOS>ATOM
      1 O1         28.6291    7.0760  -45.5585 O.2         1 X8Z      -0.3964
      2 C4         28.5455    7.4037  -44.3776 C.2         1 X8Z       0.1838
      3 C2         28.6121    6.2985  -43.4018 C.3         1 X8Z       0.0548
      4 C1         27.4028    5.3205  -43.5177 C.3         1 X8Z       0.0101
      5 S          25.8227    6.1176  -43.1505 S.3         1 X8Z      -0.1756
      6 C3         29.9580    5.5283  -43.5186 C.3         1 X8Z      -0.0446
      7 N          28.3944    8.7100  -44.0881 N.am        1 X8Z      -0.2572
      8 C8         28.4699    9.7724  -45.0707 C.3         1 X8Z       0.0971
      9 C9         29.7403    9.8650  -45.8278 C.2         1 X8Z       0.0603
     10 O3         30.8160    9.1105  -45.5184 O.co2       1 X8Z      -0.5666
     11 O2         29.8811   10.8055  -46.7882 O.co2       1 X8Z      -0.5666
     12 C5         28.0306    9.2092  -42.7922 C.3         1 X8Z       0.0362
     13 C6         27.4798   10.6247  -43.0225 C.3         1 X8Z      -0.0288
     14 C7         28.2114   11.0838  -44.2872 C.3         1 X8Z      -0.0159
     15 H1         28.6015    6.6885  -42.3839 H           1 X8Z       0.0543
     16 H2         27.5254    4.4991  -42.8091 H           1 X8Z       0.0401
     17 H3         27.3546    4.8928  -44.5243 H           1 X8Z       0.0401
     18 H4         25.1282    4.9476  -43.1878 H           1 X8Z       0.1018
     19 H5         30.8006    6.2133  -43.3885 H           1 X8Z       0.0257
     20 H6         30.0541    5.0344  -44.4895 H           1 X8Z       0.0257
     21 H7         30.0208    4.7650  -42.7374 H           1 X8Z       0.0257
     22 H8         27.6649    9.6210  -45.7961 H           1 X8Z       0.0728
     23 H9         28.9107    9.2347  -42.1445 H           1 X8Z       0.0524
     24 H10        27.2478    8.6120  -42.3167 H           1 X8Z       0.0524
     25 H11        27.6789   11.2796  -42.1695 H           1 X8Z       0.0286
     26 H12        26.3994   10.5882  -43.2045 H           1 X8Z       0.0286
     27 H13        27.6073   11.7914  -44.8614 H           1 X8Z       0.0306
     28 H14        29.1445   11.5777  -43.9911 H           1 X8Z       0.0306
@<TRIPOS>BOND
     1     1     2   2
     2     2     3   1
     3     2     7  am
     4     3     4   1
     5     3     6   1
     6     4     5   1
     7     7     8   1
     8     7    12   1
     9     8     9   1
    10     8    14   1
    11     9    10  ar
    12     9    11  ar
    13    12    13   1
    14    13    14   1
    15     3    15   1
    16     4    16   1
    17     4    17   1
    18     5    18   1
    19     6    19   1
    20     6    20   1
    21     6    21   1
    22     8    22   1
    23    12    23   1
    24    12    24   1
    25    13    25   1
    26    13    26   1
    27    14    27   1
    28    14    28   1
@<TRIPOS>SUBSTRUCTURE
     1  X8Z      2

