@<TRIPOS>MOLECULE
2x8z_ligand_069
    28    28
SMALL
GAST_HUCK
****
This file was generated by PARSER (from files_GN.cpp)

@<TRIPOS>ATOM
      1 O1         27.7856    6.8701  -44.9953 O.2         1 X8Z      -0.3964
      2 C4         28.3821    7.9027  -44.7117 C.2         1 X8Z       0.1838
      3 C2         27.5468    9.1157  -44.6360 C.3         1 X8Z       0.0548
      4 C1         27.0428    9.5120  -46.0581 C.3         1 X8Z       0.0101
      5 S          26.2575   11.1432  -46.1209 S.3         1 X8Z      -0.1756
      6 C3         26.3829    8.9261  -43.6116 C.3         1 X8Z      -0.0446
      7 N          29.7222    7.8467  -44.5555 N.am        1 X8Z      -0.2572
      8 C8         30.4833    6.6135  -44.5366 C.3         1 X8Z       0.0971
      9 C9         30.0101    5.5889  -43.5827 C.2         1 X8Z       0.0603
     10 O3         30.2720    4.2786  -43.8044 O.co2       1 X8Z      -0.5666
     11 O2         29.6683    5.9456  -42.3185 O.co2       1 X8Z      -0.5666
     12 C5         30.5689    9.0039  -44.4753 C.3         1 X8Z       0.0362
     13 C6         32.0087    8.4929  -44.6576 C.3         1 X8Z      -0.0288
     14 C7         31.9367    7.0372  -44.1979 C.3         1 X8Z      -0.0159
     15 H1         28.1318    9.9582  -44.2625 H           1 X8Z       0.0543
     16 H2         26.3284    8.7718  -46.4267 H           1 X8Z       0.0401
     17 H3         27.8878    9.5417  -46.7525 H           1 X8Z       0.0401
     18 H4         26.0452   11.0679  -47.4619 H           1 X8Z       0.1018
     19 H5         26.7824    8.6152  -42.6428 H           1 X8Z       0.0257
     20 H6         25.6727    8.1686  -43.9552 H           1 X8Z       0.0257
     21 H7         25.8377    9.8623  -43.4629 H           1 X8Z       0.0257
     22 H8         30.4613    6.1883  -45.5478 H           1 X8Z       0.0728
     23 H9         30.4547    9.4894  -43.5007 H           1 X8Z       0.0524
     24 H10        30.3473    9.7273  -45.2691 H           1 X8Z       0.0524
     25 H11        32.7282    9.0770  -44.0739 H           1 X8Z       0.0286
     26 H12        32.2941    8.5295  -45.7132 H           1 X8Z       0.0286
     27 H13        32.6702    6.4134  -44.7128 H           1 X8Z       0.0306
     28 H14        32.1317    6.9958  -43.1215 H           1 X8Z       0.0306
@<TRIPOS>BOND
     1     1     2   2
     2     2     3   1
     3     2     7  am
     4     3     4   1
     5     3     6   1
     6     4     5   1
     7     7     8   1
     8     7    12   1
     9     8     9   1
    10     8    14   1
    11     9    10  ar
    12     9    11  ar
    13    12    13   1
    14    13    14   1
    15     3    15   1
    16     4    16   1
    17     4    17   1
    18     5    18   1
    19     6    19   1
    20     6    20   1
    21     6    21   1
    22     8    22   1
    23    12    23   1
    24    12    24   1
    25    13    25   1
    26    13    26   1
    27    14    27   1
    28    14    28   1
@<TRIPOS>SUBSTRUCTURE
     1  X8Z      2

