@<TRIPOS>MOLECULE
2x8z_ligand_048
    28    28
SMALL
GAST_HUCK
****
This file was generated by PARSER (from files_GN.cpp)

@<TRIPOS>ATOM
      1 O1         28.5612    7.4711  -39.9449 O.2         1 X8Z      -0.3964
      2 C4         29.0153    7.8180  -38.8578 C.2         1 X8Z       0.1838
      3 C2         28.7294    9.1907  -38.4388 C.3         1 X8Z       0.0548
      4 C1         29.6895   10.2111  -39.1113 C.3         1 X8Z       0.0101
      5 S          29.4094   10.5444  -40.8646 S.3         1 X8Z      -0.1756
      6 C3         27.2234    9.5508  -38.6015 C.3         1 X8Z      -0.0446
      7 N          29.7325    6.9204  -38.1466 N.am        1 X8Z      -0.2572
      8 C8         30.4609    7.1597  -36.9226 C.3         1 X8Z       0.0971
      9 C9         31.4869    8.2385  -37.0092 C.2         1 X8Z       0.0603
     10 O3         31.2606    9.4389  -36.4097 O.co2       1 X8Z      -0.5666
     11 O2         32.6180    8.0337  -37.7290 O.co2       1 X8Z      -0.5666
     12 C5         29.7979    5.5291  -38.5400 C.3         1 X8Z       0.0362
     13 C6         30.3376    4.7682  -37.3161 C.3         1 X8Z      -0.0288
     14 C7         31.1609    5.8196  -36.5719 C.3         1 X8Z      -0.0159
     15 H1         28.9173    9.2870  -37.3686 H           1 X8Z       0.0543
     16 H2         30.7119    9.8642  -39.0320 H           1 X8Z       0.0401
     17 H3         29.6417   11.1644  -38.5798 H           1 X8Z       0.0401
     18 H4         28.5946   11.6072  -40.6205 H           1 X8Z       0.1018
     19 H5         26.5945    8.8105  -38.1081 H           1 X8Z       0.0257
     20 H6         26.9415    9.5949  -39.6517 H           1 X8Z       0.0257
     21 H7         27.0096   10.5153  -38.1457 H           1 X8Z       0.0257
     22 H8         29.7384    7.3830  -36.1361 H           1 X8Z       0.0728
     23 H9         30.4674    5.4018  -39.3959 H           1 X8Z       0.0524
     24 H10        28.8109    5.1365  -38.7921 H           1 X8Z       0.0524
     25 H11        30.9550    3.9092  -37.6023 H           1 X8Z       0.0286
     26 H12        29.5107    4.4375  -36.6834 H           1 X8Z       0.0286
     27 H13        31.1683    5.6403  -35.4903 H           1 X8Z       0.0306
     28 H14        32.1964    5.7797  -36.9497 H           1 X8Z       0.0306
@<TRIPOS>BOND
     1     1     2   2
     2     2     3   1
     3     2     7  am
     4     3     4   1
     5     3     6   1
     6     4     5   1
     7     7     8   1
     8     7    12   1
     9     8     9   1
    10     8    14   1
    11     9    10  ar
    12     9    11  ar
    13    12    13   1
    14    13    14   1
    15     3    15   1
    16     4    16   1
    17     4    17   1
    18     5    18   1
    19     6    19   1
    20     6    20   1
    21     6    21   1
    22     8    22   1
    23    12    23   1
    24    12    24   1
    25    13    25   1
    26    13    26   1
    27    14    27   1
    28    14    28   1
@<TRIPOS>SUBSTRUCTURE
     1  X8Z      2

