@<TRIPOS>MOLECULE
2x8z_ligand_086
    28    28
SMALL
GAST_HUCK
****
This file was generated by PARSER (from files_GN.cpp)

@<TRIPOS>ATOM
      1 O1         29.5546    9.8891  -38.4288 O.2         1 X8Z      -0.3964
      2 C4         29.4461   10.0531  -37.2167 C.2         1 X8Z       0.1838
      3 C2         28.8458    8.9290  -36.4796 C.3         1 X8Z       0.0548
      4 C1         27.3117    8.7909  -36.7477 C.3         1 X8Z       0.0101
      5 S          26.8026    8.3772  -38.4364 S.3         1 X8Z      -0.1756
      6 C3         29.6305    7.6060  -36.7083 C.3         1 X8Z      -0.0446
      7 N          29.8876   11.2122  -36.6886 N.am        1 X8Z      -0.2572
      8 C8         29.7765   11.6416  -35.3130 C.3         1 X8Z       0.0971
      9 C9         28.3941   11.6605  -34.7835 C.2         1 X8Z       0.0603
     10 O3         27.3914   12.2207  -35.4970 O.co2       1 X8Z      -0.5666
     11 O2         28.1173   11.1556  -33.5614 O.co2       1 X8Z      -0.5666
     12 C5         30.6032   12.1753  -37.4841 C.3         1 X8Z       0.0362
     13 C6         31.3015   13.1111  -36.4859 C.3         1 X8Z      -0.0288
     14 C7         30.3825   13.0674  -35.2639 C.3         1 X8Z      -0.0159
     15 H1         28.9387    9.1077  -35.4073 H           1 X8Z       0.0543
     16 H2         26.8226    9.7337  -36.4972 H           1 X8Z       0.0401
     17 H3         26.8940    8.0328  -36.0816 H           1 X8Z       0.0401
     18 H4         27.3047    7.1147  -38.3869 H           1 X8Z       0.1018
     19 H5         30.6778    7.7338  -36.4260 H           1 X8Z       0.0257
     20 H6         29.5993    7.3006  -37.7546 H           1 X8Z       0.0257
     21 H7         29.2069    6.8044  -36.0996 H           1 X8Z       0.0257
     22 H8         30.3931   10.9788  -34.6956 H           1 X8Z       0.0728
     23 H9         29.8987   12.7308  -38.1111 H           1 X8Z       0.0524
     24 H10        31.3590   11.7065  -38.1223 H           1 X8Z       0.0524
     25 H11        31.4106   14.1217  -36.8864 H           1 X8Z       0.0286
     26 H12        32.2884   12.7219  -36.2181 H           1 X8Z       0.0286
     27 H13        30.9384   13.2401  -34.3376 H           1 X8Z       0.0306
     28 H14        29.6209   13.8490  -35.3688 H           1 X8Z       0.0306
@<TRIPOS>BOND
     1     1     2   2
     2     2     3   1
     3     2     7  am
     4     3     4   1
     5     3     6   1
     6     4     5   1
     7     7     8   1
     8     7    12   1
     9     8     9   1
    10     8    14   1
    11     9    10  ar
    12     9    11  ar
    13    12    13   1
    14    13    14   1
    15     3    15   1
    16     4    16   1
    17     4    17   1
    18     5    18   1
    19     6    19   1
    20     6    20   1
    21     6    21   1
    22     8    22   1
    23    12    23   1
    24    12    24   1
    25    13    25   1
    26    13    26   1
    27    14    27   1
    28    14    28   1
@<TRIPOS>SUBSTRUCTURE
     1  X8Z      2

