@<TRIPOS>MOLECULE
2x8z_ligand_090
    28    28
SMALL
GAST_HUCK
****
This file was generated by PARSER (from files_GN.cpp)

@<TRIPOS>ATOM
      1 O1         29.2092    7.8215  -42.6243 O.2         1 X8Z      -0.3964
      2 C4         29.0441    7.9234  -43.8356 C.2         1 X8Z       0.1838
      3 C2         29.8833    7.0330  -44.6623 C.3         1 X8Z       0.0548
      4 C1         31.3225    7.5959  -44.9577 C.3         1 X8Z       0.0101
      5 S          32.0341    8.7463  -43.7462 S.3         1 X8Z      -0.1756
      6 C3         29.9384    5.5805  -44.0937 C.3         1 X8Z      -0.0446
      7 N          28.1273    8.8136  -44.2770 N.am        1 X8Z      -0.2572
      8 C8         27.8746    9.1694  -45.6536 C.3         1 X8Z       0.0971
      9 C9         29.0572    9.6689  -46.3986 C.2         1 X8Z       0.0603
     10 O3         29.6626   10.8303  -46.0459 O.co2       1 X8Z      -0.5666
     11 O2         29.6701    8.8832  -47.3118 O.co2       1 X8Z      -0.5666
     12 C5         27.2468    9.5041  -43.3777 C.3         1 X8Z       0.0362
     13 C6         26.1062   10.0583  -44.2427 C.3         1 X8Z      -0.0288
     14 C7         26.7694   10.2592  -45.6080 C.3         1 X8Z      -0.0159
     15 H1         29.4054    6.9184  -45.6426 H           1 X8Z       0.0543
     16 H2         31.3146    8.1041  -45.9341 H           1 X8Z       0.0401
     17 H3         32.0274    6.7570  -45.0387 H           1 X8Z       0.0401
     18 H4         31.0299    9.6575  -43.9083 H           1 X8Z       0.1018
     19 H5         28.9268    5.2149  -43.8985 H           1 X8Z       0.0257
     20 H6         30.5136    5.5513  -43.1660 H           1 X8Z       0.0257
     21 H7         30.4101    4.9096  -44.8182 H           1 X8Z       0.0257
     22 H8         27.4621    8.2914  -46.1674 H           1 X8Z       0.0728
     23 H9         27.7927   10.3127  -42.8820 H           1 X8Z       0.0524
     24 H10        26.8254    8.8365  -42.6200 H           1 X8Z       0.0524
     25 H11        25.7059   10.9920  -43.8335 H           1 X8Z       0.0286
     26 H12        25.2975    9.3252  -44.3258 H           1 X8Z       0.0286
     27 H13        26.0451   10.1462  -46.4223 H           1 X8Z       0.0306
     28 H14        27.1840   11.2758  -45.6466 H           1 X8Z       0.0306
@<TRIPOS>BOND
     1     1     2   2
     2     2     3   1
     3     2     7  am
     4     3     4   1
     5     3     6   1
     6     4     5   1
     7     7     8   1
     8     7    12   1
     9     8     9   1
    10     8    14   1
    11     9    10  ar
    12     9    11  ar
    13    12    13   1
    14    13    14   1
    15     3    15   1
    16     4    16   1
    17     4    17   1
    18     5    18   1
    19     6    19   1
    20     6    20   1
    21     6    21   1
    22     8    22   1
    23    12    23   1
    24    12    24   1
    25    13    25   1
    26    13    26   1
    27    14    27   1
    28    14    28   1
@<TRIPOS>SUBSTRUCTURE
     1  X8Z      2

