@<TRIPOS>MOLECULE
2x8z_ligand_068
    28    28
SMALL
GAST_HUCK
****
This file was generated by PARSER (from files_GN.cpp)

@<TRIPOS>ATOM
      1 O1         23.9412   -2.6044  -44.6428 O.2         1 X8Z      -0.3964
      2 C4         24.3393   -3.6280  -45.1912 C.2         1 X8Z       0.1838
      3 C2         24.3667   -4.8289  -44.3362 C.3         1 X8Z       0.0548
      4 C1         25.6943   -4.9482  -43.5264 C.3         1 X8Z       0.0101
      5 S          25.8932   -3.7749  -42.1632 S.3         1 X8Z      -0.1756
      6 C3         23.1000   -4.9669  -43.4387 C.3         1 X8Z      -0.0446
      7 N          24.6726   -3.5680  -46.4987 N.am        1 X8Z      -0.2572
      8 C8         25.1793   -4.6502  -47.3131 C.3         1 X8Z       0.0971
      9 C9         26.4544   -5.2495  -46.8418 C.2         1 X8Z       0.0603
     10 O3         27.6577   -4.8113  -47.2888 O.co2       1 X8Z      -0.5666
     11 O2         26.4469   -6.3072  -45.9960 O.co2       1 X8Z      -0.5666
     12 C5         24.4499   -2.3811  -47.2853 C.3         1 X8Z       0.0362
     13 C6         24.4387   -2.8411  -48.7513 C.3         1 X8Z      -0.0288
     14 C7         25.3461   -4.0728  -48.7417 C.3         1 X8Z      -0.0159
     15 H1         24.3366   -5.7166  -44.9660 H           1 X8Z       0.0543
     16 H2         26.5434   -4.8199  -44.2005 H           1 X8Z       0.0401
     17 H3         25.7624   -5.9545  -43.1088 H           1 X8Z       0.0401
     18 H4         27.1461   -4.2128  -41.8684 H           1 X8Z       0.1018
     19 H5         22.1992   -5.0100  -44.0540 H           1 X8Z       0.0257
     20 H6         23.0074   -4.1214  -42.7562 H           1 X8Z       0.0257
     21 H7         23.1491   -5.8839  -42.8474 H           1 X8Z       0.0257
     22 H8         24.4111   -5.4278  -47.3526 H           1 X8Z       0.0728
     23 H9         25.2586   -1.6677  -47.1061 H           1 X8Z       0.0524
     24 H10        23.4957   -1.8924  -47.0620 H           1 X8Z       0.0524
     25 H11        24.8045   -2.0588  -49.4253 H           1 X8Z       0.0286
     26 H12        23.4280   -3.1300  -49.0502 H           1 X8Z       0.0286
     27 H13        25.0558   -4.7960  -49.5074 H           1 X8Z       0.0306
     28 H14        26.3719   -3.7484  -48.9410 H           1 X8Z       0.0306
@<TRIPOS>BOND
     1     1     2   2
     2     2     3   1
     3     2     7  am
     4     3     4   1
     5     3     6   1
     6     4     5   1
     7     7     8   1
     8     7    12   1
     9     8     9   1
    10     8    14   1
    11     9    10  ar
    12     9    11  ar
    13    12    13   1
    14    13    14   1
    15     3    15   1
    16     4    16   1
    17     4    17   1
    18     5    18   1
    19     6    19   1
    20     6    20   1
    21     6    21   1
    22     8    22   1
    23    12    23   1
    24    12    24   1
    25    13    25   1
    26    13    26   1
    27    14    27   1
    28    14    28   1
@<TRIPOS>SUBSTRUCTURE
     1  X8Z      2

