@<TRIPOS>MOLECULE
2x8z_ligand_006
    28    28
SMALL
GAST_HUCK
****
This file was generated by PARSER (from files_GN.cpp)

@<TRIPOS>ATOM
      1 O1         26.1786   10.4873  -46.0732 O.2         1 X8Z      -0.3964
      2 C4         26.8880    9.9255  -45.2341 C.2         1 X8Z       0.1838
      3 C2         26.7819    8.4582  -45.2246 C.3         1 X8Z       0.0548
      4 C1         28.1211    7.6550  -45.2579 C.3         1 X8Z       0.0101
      5 S          29.4058    8.3380  -46.3374 S.3         1 X8Z      -0.1756
      6 C3         25.8230    7.9491  -44.1088 C.3         1 X8Z      -0.0446
      7 N          27.6916   10.7045  -44.4805 N.am        1 X8Z      -0.2572
      8 C8         27.8827   12.1174  -44.7481 C.3         1 X8Z       0.0971
      9 C9         28.4820   12.3577  -46.0772 C.2         1 X8Z       0.0603
     10 O3         29.7865   12.0434  -46.2995 O.co2       1 X8Z      -0.5666
     11 O2         27.6936   12.6452  -47.1432 O.co2       1 X8Z      -0.5666
     12 C5         28.4268   10.2843  -43.3321 C.3         1 X8Z       0.0362
     13 C6         28.6602   11.5705  -42.5231 C.3         1 X8Z      -0.0288
     14 C7         28.7710   12.6584  -43.6014 C.3         1 X8Z      -0.0159
     15 H1         26.2920    8.1627  -46.1590 H           1 X8Z       0.0543
     16 H2         27.9153    6.6404  -45.6010 H           1 X8Z       0.0401
     17 H3         28.5374    7.5705  -44.2527 H           1 X8Z       0.0401
     18 H4         28.5782    8.5639  -47.3944 H           1 X8Z       0.1018
     19 H5         24.8701    8.4830  -44.1619 H           1 X8Z       0.0257
     20 H6         26.2441    8.0819  -43.1153 H           1 X8Z       0.0257
     21 H7         25.6160    6.8853  -44.2511 H           1 X8Z       0.0257
     22 H8         26.9103   12.6166  -44.6903 H           1 X8Z       0.0728
     23 H9         29.3865    9.8521  -43.6405 H           1 X8Z       0.0524
     24 H10        27.8902    9.5705  -42.7020 H           1 X8Z       0.0524
     25 H11        29.5545   11.5068  -41.9019 H           1 X8Z       0.0286
     26 H12        27.7895   11.7575  -41.8876 H           1 X8Z       0.0286
     27 H13        28.4157   13.6208  -43.2288 H           1 X8Z       0.0306
     28 H14        29.8187   12.7596  -43.8955 H           1 X8Z       0.0306
@<TRIPOS>BOND
     1     1     2   2
     2     2     3   1
     3     2     7  am
     4     3     4   1
     5     3     6   1
     6     4     5   1
     7     7     8   1
     8     7    12   1
     9     8     9   1
    10     8    14   1
    11     9    10  ar
    12     9    11  ar
    13    12    13   1
    14    13    14   1
    15     3    15   1
    16     4    16   1
    17     4    17   1
    18     5    18   1
    19     6    19   1
    20     6    20   1
    21     6    21   1
    22     8    22   1
    23    12    23   1
    24    12    24   1
    25    13    25   1
    26    13    26   1
    27    14    27   1
    28    14    28   1
@<TRIPOS>SUBSTRUCTURE
     1  X8Z      2

