@<TRIPOS>MOLECULE
2x8z_ligand_004
    28    28
SMALL
GAST_HUCK
****
This file was generated by PARSER (from files_GN.cpp)

@<TRIPOS>ATOM
      1 O1         29.3234    5.3150  -38.8256 O.2         1 X8Z      -0.3964
      2 C4         29.5038    5.8494  -37.7343 C.2         1 X8Z       0.1838
      3 C2         30.9151    5.9518  -37.3116 C.3         1 X8Z       0.0548
      4 C1         31.5651    4.5639  -37.0290 C.3         1 X8Z       0.0101
      5 S          30.9260    3.7230  -35.5557 S.3         1 X8Z      -0.1756
      6 C3         31.7476    6.7373  -38.3703 C.3         1 X8Z      -0.0446
      7 N          28.4271    6.2682  -37.0503 N.am        1 X8Z      -0.2572
      8 C8         27.0724    6.3118  -37.5749 C.3         1 X8Z       0.0971
      9 C9         26.8774    7.2056  -38.7545 C.2         1 X8Z       0.0603
     10 O3         25.9393    8.1805  -38.7936 O.co2       1 X8Z      -0.5666
     11 O2         27.5266    6.9682  -39.9142 O.co2       1 X8Z      -0.5666
     12 C5         28.4576    6.5851  -35.6449 C.3         1 X8Z       0.0362
     13 C6         27.0305    6.3326  -35.1452 C.3         1 X8Z      -0.0288
     14 C7         26.1860    6.7047  -36.3606 C.3         1 X8Z      -0.0159
     15 H1         30.9997    6.5379  -36.3960 H           1 X8Z       0.0543
     16 H2         32.6369    4.6958  -36.8632 H           1 X8Z       0.0401
     17 H3         31.4506    3.8982  -37.8856 H           1 X8Z       0.0401
     18 H4         30.0737    2.9346  -36.2630 H           1 X8Z       0.1018
     19 H5         31.2950    7.7122  -38.5704 H           1 X8Z       0.0257
     20 H6         31.8184    6.1885  -39.3120 H           1 X8Z       0.0257
     21 H7         32.7649    6.9144  -38.0066 H           1 X8Z       0.0257
     22 H8         26.7926    5.2948  -37.8752 H           1 X8Z       0.0728
     23 H9         28.7349    7.6358  -35.5081 H           1 X8Z       0.0524
     24 H10        29.1374    5.9546  -35.0662 H           1 X8Z       0.0524
     25 H11        26.7829    6.9369  -34.2691 H           1 X8Z       0.0286
     26 H12        26.8871    5.2740  -34.9036 H           1 X8Z       0.0286
     27 H13        25.2297    6.1763  -36.3669 H           1 X8Z       0.0306
     28 H14        25.9944    7.7832  -36.3181 H           1 X8Z       0.0306
@<TRIPOS>BOND
     1     1     2   2
     2     2     3   1
     3     2     7  am
     4     3     4   1
     5     3     6   1
     6     4     5   1
     7     7     8   1
     8     7    12   1
     9     8     9   1
    10     8    14   1
    11     9    10  ar
    12     9    11  ar
    13    12    13   1
    14    13    14   1
    15     3    15   1
    16     4    16   1
    17     4    17   1
    18     5    18   1
    19     6    19   1
    20     6    20   1
    21     6    21   1
    22     8    22   1
    23    12    23   1
    24    12    24   1
    25    13    25   1
    26    13    26   1
    27    14    27   1
    28    14    28   1
@<TRIPOS>SUBSTRUCTURE
     1  X8Z      2

