@<TRIPOS>MOLECULE
2x8z_ligand_036
    28    28
SMALL
GAST_HUCK
****
This file was generated by PARSER (from files_GN.cpp)

@<TRIPOS>ATOM
      1 O1         29.5560    8.9285  -39.4128 O.2         1 X8Z      -0.3964
      2 C4         29.6754    9.6690  -38.4442 C.2         1 X8Z       0.1838
      3 C2         28.9972    9.2298  -37.2078 C.3         1 X8Z       0.0548
      4 C1         27.4450    9.3638  -37.2947 C.3         1 X8Z       0.0101
      5 S          26.6026    8.2988  -38.4882 S.3         1 X8Z      -0.1756
      6 C3         29.4798    7.8215  -36.7562 C.3         1 X8Z      -0.0446
      7 N          30.3858   10.8007  -38.5967 N.am        1 X8Z      -0.2572
      8 C8         31.1163   11.1437  -39.8020 C.3         1 X8Z       0.0971
      9 C9         32.1001   10.1400  -40.2838 C.2         1 X8Z       0.0603
     10 O3         32.6625    9.2577  -39.4221 O.co2       1 X8Z      -0.5666
     11 O2         32.1922    9.8785  -41.6064 O.co2       1 X8Z      -0.5666
     12 C5         30.4283   11.8592  -37.6264 C.3         1 X8Z       0.0362
     13 C6         31.0042   13.0864  -38.3522 C.3         1 X8Z      -0.0288
     14 C7         31.8341   12.4784  -39.4856 C.3         1 X8Z      -0.0159
     15 H1         29.2928    9.8823  -36.3811 H           1 X8Z       0.0543
     16 H2         27.1974   10.3945  -37.5572 H           1 X8Z       0.0401
     17 H3         27.0076    9.1710  -36.3140 H           1 X8Z       0.0401
     18 H4         26.9166    7.1513  -37.8283 H           1 X8Z       0.1018
     19 H5         30.5645    7.8161  -36.6146 H           1 X8Z       0.0257
     20 H6         29.2231    7.0572  -37.4910 H           1 X8Z       0.0257
     21 H7         29.0153    7.5576  -35.8023 H           1 X8Z       0.0257
     22 H8         30.3796   11.3194  -40.5957 H           1 X8Z       0.0728
     23 H9         31.0675   11.5673  -36.7867 H           1 X8Z       0.0524
     24 H10        29.4305   12.1117  -37.2506 H           1 X8Z       0.0524
     25 H11        31.6126   13.7024  -37.6848 H           1 X8Z       0.0286
     26 H12        30.1934   13.6933  -38.7678 H           1 X8Z       0.0286
     27 H13        31.8635   13.1414  -40.3541 H           1 X8Z       0.0306
     28 H14        32.8559   12.3173  -39.1282 H           1 X8Z       0.0306
@<TRIPOS>BOND
     1     1     2   2
     2     2     3   1
     3     2     7  am
     4     3     4   1
     5     3     6   1
     6     4     5   1
     7     7     8   1
     8     7    12   1
     9     8     9   1
    10     8    14   1
    11     9    10  ar
    12     9    11  ar
    13    12    13   1
    14    13    14   1
    15     3    15   1
    16     4    16   1
    17     4    17   1
    18     5    18   1
    19     6    19   1
    20     6    20   1
    21     6    21   1
    22     8    22   1
    23    12    23   1
    24    12    24   1
    25    13    25   1
    26    13    26   1
    27    14    27   1
    28    14    28   1
@<TRIPOS>SUBSTRUCTURE
     1  X8Z      2

