@<TRIPOS>MOLECULE
2x8z_ligand_091
    28    28
SMALL
GAST_HUCK
****
This file was generated by PARSER (from files_GN.cpp)

@<TRIPOS>ATOM
      1 O1         26.9463    7.6555  -45.3504 O.2         1 X8Z      -0.3964
      2 C4         27.9152    8.1366  -44.7673 C.2         1 X8Z       0.1838
      3 C2         29.2180    7.6573  -45.2800 C.3         1 X8Z       0.0548
      4 C1         30.3271    8.7312  -45.5158 C.3         1 X8Z       0.0101
      5 S          29.7544   10.2452  -46.3335 S.3         1 X8Z      -0.1756
      6 C3         29.7583    6.4250  -44.4973 C.3         1 X8Z      -0.0446
      7 N          27.6560    9.0564  -43.8092 N.am        1 X8Z      -0.2572
      8 C8         28.5822    9.6657  -42.8837 C.3         1 X8Z       0.0971
      9 C9         29.2944    8.7145  -42.0044 C.2         1 X8Z       0.0603
     10 O3         30.6173    8.8624  -41.7586 O.co2       1 X8Z      -0.5666
     11 O2         28.6260    7.7175  -41.3812 O.co2       1 X8Z      -0.5666
     12 C5         26.3376    9.6195  -43.6581 C.3         1 X8Z       0.0362
     13 C6         26.5193   10.9318  -42.8839 C.3         1 X8Z      -0.0288
     14 C7         27.7513   10.6501  -42.0237 C.3         1 X8Z      -0.0159
     15 H1         29.0357    7.2627  -46.2894 H           1 X8Z       0.0543
     16 H2         31.1148    8.3002  -46.1359 H           1 X8Z       0.0401
     17 H3         30.7996    9.0126  -44.5763 H           1 X8Z       0.0401
     18 H4         29.3065    9.6107  -47.4456 H           1 X8Z       0.1018
     19 H5         28.9457    5.7518  -44.2108 H           1 X8Z       0.0257
     20 H6         30.2984    6.7274  -43.6033 H           1 X8Z       0.0257
     21 H7         30.4504    5.8559  -45.1251 H           1 X8Z       0.0257
     22 H8         29.3045   10.2613  -43.4398 H           1 X8Z       0.0728
     23 H9         25.7089    8.9180  -43.1051 H           1 X8Z       0.0524
     24 H10        25.8629    9.8479  -44.6188 H           1 X8Z       0.0524
     25 H11        25.6463   11.1792  -42.2778 H           1 X8Z       0.0286
     26 H12        26.7234   11.7557  -43.5758 H           1 X8Z       0.0286
     27 H13        28.3046   11.5686  -41.8095 H           1 X8Z       0.0306
     28 H14        27.4230   10.2100  -41.0755 H           1 X8Z       0.0306
@<TRIPOS>BOND
     1     1     2   2
     2     2     3   1
     3     2     7  am
     4     3     4   1
     5     3     6   1
     6     4     5   1
     7     7     8   1
     8     7    12   1
     9     8     9   1
    10     8    14   1
    11     9    10  ar
    12     9    11  ar
    13    12    13   1
    14    13    14   1
    15     3    15   1
    16     4    16   1
    17     4    17   1
    18     5    18   1
    19     6    19   1
    20     6    20   1
    21     6    21   1
    22     8    22   1
    23    12    23   1
    24    12    24   1
    25    13    25   1
    26    13    26   1
    27    14    27   1
    28    14    28   1
@<TRIPOS>SUBSTRUCTURE
     1  X8Z      2

