@<TRIPOS>MOLECULE
2x8z_ligand_016
    28    28
SMALL
GAST_HUCK
****
This file was generated by PARSER (from files_GN.cpp)

@<TRIPOS>ATOM
      1 O1         28.7897    9.0886  -39.0558 O.2         1 X8Z      -0.3964
      2 C4         29.6628    8.3831  -39.5520 C.2         1 X8Z       0.1838
      3 C2         30.1625    8.8443  -40.8594 C.3         1 X8Z       0.0548
      4 C1         29.0166    9.5181  -41.6904 C.3         1 X8Z       0.0101
      5 S          29.4782   10.0405  -43.3632 S.3         1 X8Z      -0.1756
      6 C3         31.4015    9.7626  -40.6423 C.3         1 X8Z      -0.0446
      7 N          30.1314    7.3424  -38.8296 N.am        1 X8Z      -0.2572
      8 C8         31.2034    6.4476  -39.2112 C.3         1 X8Z       0.0971
      9 C9         30.9233    5.6060  -40.3988 C.2         1 X8Z       0.0603
     10 O3         31.9437    5.0747  -41.1133 O.co2       1 X8Z      -0.5666
     11 O2         29.6553    5.3000  -40.7555 O.co2       1 X8Z      -0.5666
     12 C5         29.6788    7.0840  -37.4894 C.3         1 X8Z       0.0362
     13 C6         30.8265    6.3304  -36.8106 C.3         1 X8Z      -0.0288
     14 C7         31.4658    5.5589  -37.9691 C.3         1 X8Z      -0.0159
     15 H1         30.5178    8.0029  -41.4546 H           1 X8Z       0.0543
     16 H2         28.6197   10.3886  -41.1618 H           1 X8Z       0.0401
     17 H3         28.2018    8.8009  -41.8056 H           1 X8Z       0.0401
     18 H4         30.1332   11.1480  -42.9209 H           1 X8Z       0.1018
     19 H5         32.1479    9.2531  -40.0286 H           1 X8Z       0.0257
     20 H6         31.1165   10.6950  -40.1452 H           1 X8Z       0.0257
     21 H7         31.8758   10.0048  -41.5913 H           1 X8Z       0.0257
     22 H8         32.1001    7.0474  -39.3978 H           1 X8Z       0.0728
     23 H9         28.7745    6.4700  -37.5199 H           1 X8Z       0.0524
     24 H10        29.4718    7.9948  -36.9158 H           1 X8Z       0.0524
     25 H11        30.4720    5.6708  -36.0166 H           1 X8Z       0.0286
     26 H12        31.5418    7.0455  -36.3921 H           1 X8Z       0.0286
     27 H13        32.5337    5.4113  -37.7944 H           1 X8Z       0.0306
     28 H14        30.9818    4.5818  -38.0477 H           1 X8Z       0.0306
@<TRIPOS>BOND
     1     1     2   2
     2     2     3   1
     3     2     7  am
     4     3     4   1
     5     3     6   1
     6     4     5   1
     7     7     8   1
     8     7    12   1
     9     8     9   1
    10     8    14   1
    11     9    10  ar
    12     9    11  ar
    13    12    13   1
    14    13    14   1
    15     3    15   1
    16     4    16   1
    17     4    17   1
    18     5    18   1
    19     6    19   1
    20     6    20   1
    21     6    21   1
    22     8    22   1
    23    12    23   1
    24    12    24   1
    25    13    25   1
    26    13    26   1
    27    14    27   1
    28    14    28   1
@<TRIPOS>SUBSTRUCTURE
     1  X8Z      2

