@<TRIPOS>MOLECULE
2x8z_ligand_015
    28    28
SMALL
GAST_HUCK
****
This file was generated by PARSER (from files_GN.cpp)

@<TRIPOS>ATOM
      1 O1         26.6055    2.6592  -44.9119 O.2         1 X8Z      -0.3964
      2 C4         26.6975    2.5278  -43.6975 C.2         1 X8Z       0.1838
      3 C2         26.7234    1.1316  -43.2274 C.3         1 X8Z       0.0548
      4 C1         25.3623    0.3876  -43.4506 C.3         1 X8Z       0.0101
      5 S          24.9383   -0.0149  -45.1579 S.3         1 X8Z      -0.1756
      6 C3         27.9390    0.3484  -43.8020 C.3         1 X8Z      -0.0446
      7 N          26.7565    3.6265  -42.9218 N.am        1 X8Z      -0.2572
      8 C8         26.9047    4.9675  -43.4547 C.3         1 X8Z       0.0971
      9 C9         28.0915    5.2205  -44.3048 C.2         1 X8Z       0.0603
     10 O3         28.9794    4.2182  -44.6265 O.co2       1 X8Z      -0.5666
     11 O2         28.3059    6.4717  -44.8052 O.co2       1 X8Z      -0.5666
     12 C5         26.5973    3.6435  -41.4961 C.3         1 X8Z       0.0362
     13 C6         26.2477    5.1039  -41.1459 C.3         1 X8Z      -0.0288
     14 C7         26.9535    5.9113  -42.2324 C.3         1 X8Z      -0.0159
     15 H1         26.8870    1.1240  -42.1439 H           1 X8Z       0.0543
     16 H2         24.5570    0.9854  -43.0163 H           1 X8Z       0.0401
     17 H3         25.3892   -0.5560  -42.9139 H           1 X8Z       0.0401
     18 H4         23.9674    0.9402  -45.2337 H           1 X8Z       0.1018
     19 H5         28.8720    0.8476  -43.5053 H           1 X8Z       0.0257
     20 H6         27.9027    0.2906  -44.8902 H           1 X8Z       0.0257
     21 H7         27.9551   -0.6673  -43.3943 H           1 X8Z       0.0257
     22 H8         25.9986    5.1916  -44.0252 H           1 X8Z       0.0728
     23 H9         27.5288    3.3403  -41.0123 H           1 X8Z       0.0524
     24 H10        25.7750    3.0088  -41.1716 H           1 X8Z       0.0524
     25 H11        26.5925    5.3908  -40.1423 H           1 X8Z       0.0286
     26 H12        25.1577    5.2581  -41.2121 H           1 X8Z       0.0286
     27 H13        26.4544    6.8638  -42.4103 H           1 X8Z       0.0306
     28 H14        27.9800    6.1001  -41.9022 H           1 X8Z       0.0306
@<TRIPOS>BOND
     1     1     2   2
     2     2     3   1
     3     2     7  am
     4     3     4   1
     5     3     6   1
     6     4     5   1
     7     7     8   1
     8     7    12   1
     9     8     9   1
    10     8    14   1
    11     9    10  ar
    12     9    11  ar
    13    12    13   1
    14    13    14   1
    15     3    15   1
    16     4    16   1
    17     4    17   1
    18     5    18   1
    19     6    19   1
    20     6    20   1
    21     6    21   1
    22     8    22   1
    23    12    23   1
    24    12    24   1
    25    13    25   1
    26    13    26   1
    27    14    27   1
    28    14    28   1
@<TRIPOS>SUBSTRUCTURE
     1  X8Z      2

