@<TRIPOS>MOLECULE
2x8z_ligand_093
    28    28
SMALL
GAST_HUCK
****
This file was generated by PARSER (from files_GN.cpp)

@<TRIPOS>ATOM
      1 O1         30.3402    8.2502  -41.3050 O.2         1 X8Z      -0.3964
      2 C4         30.3672    8.7519  -40.1822 C.2         1 X8Z       0.1838
      3 C2         30.7616   10.1807  -40.2154 C.3         1 X8Z       0.0548
      4 C1         30.4126   11.1017  -39.0009 C.3         1 X8Z       0.0101
      5 S          30.5457   12.8810  -39.3570 S.3         1 X8Z      -0.1756
      6 C3         32.2553   10.3071  -40.6356 C.3         1 X8Z      -0.0446
      7 N          30.0713    7.9223  -39.1503 N.am        1 X8Z      -0.2572
      8 C8         30.1788    8.1822  -37.7336 C.3         1 X8Z       0.0971
      9 C9         31.5278    8.5897  -37.2849 C.2         1 X8Z       0.0603
     10 O3         31.6918    9.1496  -36.0643 O.co2       1 X8Z      -0.5666
     11 O2         32.6263    8.0533  -37.8743 O.co2       1 X8Z      -0.5666
     12 C5         29.5416    6.5980  -39.3818 C.3         1 X8Z       0.0362
     13 C6         28.9023    6.1413  -38.0647 C.3         1 X8Z      -0.0288
     14 C7         29.7406    6.8736  -37.0201 C.3         1 X8Z      -0.0159
     15 H1         30.1765   10.6179  -41.0340 H           1 X8Z       0.0543
     16 H2         31.0911   10.9066  -38.1699 H           1 X8Z       0.0401
     17 H3         29.3916   10.9053  -38.6710 H           1 X8Z       0.0401
     18 H4         29.5442   12.8786  -40.2795 H           1 X8Z       0.1018
     19 H5         32.3888    9.9471  -41.6575 H           1 X8Z       0.0257
     20 H6         32.8961    9.7279  -39.9785 H           1 X8Z       0.0257
     21 H7         32.5957   11.3401  -40.6165 H           1 X8Z       0.0257
     22 H8         29.4567    8.9645  -37.4682 H           1 X8Z       0.0728
     23 H9         30.3541    5.9260  -39.6731 H           1 X8Z       0.0524
     24 H10        28.7705    6.5904  -40.1616 H           1 X8Z       0.0524
     25 H11        28.9413    5.0522  -37.9431 H           1 X8Z       0.0286
     26 H12        27.8615    6.4715  -38.0145 H           1 X8Z       0.0286
     27 H13        29.1574    7.0699  -36.1164 H           1 X8Z       0.0306
     28 H14        30.6006    6.2462  -36.7523 H           1 X8Z       0.0306
@<TRIPOS>BOND
     1     1     2   2
     2     2     3   1
     3     2     7  am
     4     3     4   1
     5     3     6   1
     6     4     5   1
     7     7     8   1
     8     7    12   1
     9     8     9   1
    10     8    14   1
    11     9    10  ar
    12     9    11  ar
    13    12    13   1
    14    13    14   1
    15     3    15   1
    16     4    16   1
    17     4    17   1
    18     5    18   1
    19     6    19   1
    20     6    20   1
    21     6    21   1
    22     8    22   1
    23    12    23   1
    24    12    24   1
    25    13    25   1
    26    13    26   1
    27    14    27   1
    28    14    28   1
@<TRIPOS>SUBSTRUCTURE
     1  X8Z      2

