@<TRIPOS>MOLECULE
2x8z_ligand_077
    28    28
SMALL
GAST_HUCK
****
This file was generated by PARSER (from files_GN.cpp)

@<TRIPOS>ATOM
      1 O1         29.4523    7.9651  -37.4555 O.2         1 X8Z      -0.3964
      2 C4         29.7578    9.1437  -37.2822 C.2         1 X8Z       0.1838
      3 C2         29.4258    9.6722  -35.9423 C.3         1 X8Z       0.0548
      4 C1         30.5838   10.3862  -35.1816 C.3         1 X8Z       0.0101
      5 S          32.1857    9.5546  -35.3197 S.3         1 X8Z      -0.1756
      6 C3         28.1300   10.5273  -35.9430 C.3         1 X8Z      -0.0446
      7 N          30.3781    9.7815  -38.2965 N.am        1 X8Z      -0.2572
      8 C8         30.8325    9.1122  -39.5083 C.3         1 X8Z       0.0971
      9 C9         31.7168    7.9494  -39.2732 C.2         1 X8Z       0.0603
     10 O3         31.4471    6.7510  -39.8428 O.co2       1 X8Z      -0.5666
     11 O2         32.7627    8.0295  -38.4105 O.co2       1 X8Z      -0.5666
     12 C5         30.6368   11.1932  -38.3600 C.3         1 X8Z       0.0362
     13 C6         30.9646   11.5048  -39.8221 C.3         1 X8Z      -0.0288
     14 C7         31.5698   10.1966  -40.3302 C.3         1 X8Z      -0.0159
     15 H1         29.1759    8.8151  -35.3005 H           1 X8Z       0.0543
     16 H2         30.3441   10.4183  -34.1144 H           1 X8Z       0.0401
     17 H3         30.6769   11.4186  -35.5159 H           1 X8Z       0.0401
     18 H4         32.8940   10.6992  -35.0657 H           1 X8Z       0.1018
     19 H5         27.3180   10.0106  -36.4639 H           1 X8Z       0.0257
     20 H6         28.2765   11.5001  -36.4092 H           1 X8Z       0.0257
     21 H7         27.8114   10.7033  -34.9116 H           1 X8Z       0.0257
     22 H8         29.9535    8.7885  -40.0640 H           1 X8Z       0.0728
     23 H9         31.4927   11.4419  -37.7326 H           1 X8Z       0.0524
     24 H10        29.7799   11.7949  -38.0713 H           1 X8Z       0.0524
     25 H11        31.6648   12.3450  -39.8986 H           1 X8Z       0.0286
     26 H12        30.0532   11.7363  -40.3727 H           1 X8Z       0.0286
     27 H13        31.4110   10.0791  -41.4008 H           1 X8Z       0.0306
     28 H14        32.6530   10.2105  -40.1293 H           1 X8Z       0.0306
@<TRIPOS>BOND
     1     1     2   2
     2     2     3   1
     3     2     7  am
     4     3     4   1
     5     3     6   1
     6     4     5   1
     7     7     8   1
     8     7    12   1
     9     8     9   1
    10     8    14   1
    11     9    10  ar
    12     9    11  ar
    13    12    13   1
    14    13    14   1
    15     3    15   1
    16     4    16   1
    17     4    17   1
    18     5    18   1
    19     6    19   1
    20     6    20   1
    21     6    21   1
    22     8    22   1
    23    12    23   1
    24    12    24   1
    25    13    25   1
    26    13    26   1
    27    14    27   1
    28    14    28   1
@<TRIPOS>SUBSTRUCTURE
     1  X8Z      2

