@<TRIPOS>MOLECULE
2x8z_ligand_009
    28    28
SMALL
GAST_HUCK
****
This file was generated by PARSER (from files_GN.cpp)

@<TRIPOS>ATOM
      1 O1         32.7359    7.8891  -37.8807 O.2         1 X8Z      -0.3964
      2 C4         31.6683    7.3835  -37.5278 C.2         1 X8Z       0.1838
      3 C2         31.6476    5.9100  -37.6492 C.3         1 X8Z       0.0548
      4 C1         30.9393    5.1513  -36.4790 C.3         1 X8Z       0.0101
      5 S          31.6519    3.5371  -36.1055 S.3         1 X8Z      -0.1756
      6 C3         31.2005    5.4335  -39.0661 C.3         1 X8Z      -0.0446
      7 N          30.7164    8.2258  -37.0610 N.am        1 X8Z      -0.2572
      8 C8         29.3305    7.9482  -36.7690 C.3         1 X8Z       0.0971
      9 C9         28.5650    7.4138  -37.9100 C.2         1 X8Z       0.0603
     10 O3         27.7899    6.3123  -37.7669 O.co2       1 X8Z      -0.5666
     11 O2         28.5017    8.0907  -39.0866 O.co2       1 X8Z      -0.5666
     12 C5         31.0511    9.5877  -36.7149 C.3         1 X8Z       0.0362
     13 C6         29.9127   10.1140  -35.8301 C.3         1 X8Z      -0.0288
     14 C7         28.7102    9.2975  -36.3134 C.3         1 X8Z      -0.0159
     15 H1         32.6936    5.5767  -37.5821 H           1 X8Z       0.0543
     16 H2         29.8787    5.0195  -36.6846 H           1 X8Z       0.0401
     17 H3         31.0331    5.7413  -35.5608 H           1 X8Z       0.0401
     18 H4         30.5879    2.8490  -36.6123 H           1 X8Z       0.1018
     19 H5         31.6970    6.0252  -39.8343 H           1 X8Z       0.0257
     20 H6         30.1283    5.5134  -39.1951 H           1 X8Z       0.0257
     21 H7         31.4889    4.3959  -39.2178 H           1 X8Z       0.0257
     22 H8         29.2709    7.2607  -35.9260 H           1 X8Z       0.0728
     23 H9         31.1405   10.1846  -37.6264 H           1 X8Z       0.0524
     24 H10        31.9867    9.6433  -36.1449 H           1 X8Z       0.0524
     25 H11        29.7591   11.1882  -35.9644 H           1 X8Z       0.0286
     26 H12        30.1097    9.9043  -34.7782 H           1 X8Z       0.0286
     27 H13        27.9787    9.1610  -35.5100 H           1 X8Z       0.0306
     28 H14        28.2286    9.8384  -37.1326 H           1 X8Z       0.0306
@<TRIPOS>BOND
     1     1     2   2
     2     2     3   1
     3     2     7  am
     4     3     4   1
     5     3     6   1
     6     4     5   1
     7     7     8   1
     8     7    12   1
     9     8     9   1
    10     8    14   1
    11     9    10  ar
    12     9    11  ar
    13    12    13   1
    14    13    14   1
    15     3    15   1
    16     4    16   1
    17     4    17   1
    18     5    18   1
    19     6    19   1
    20     6    20   1
    21     6    21   1
    22     8    22   1
    23    12    23   1
    24    12    24   1
    25    13    25   1
    26    13    26   1
    27    14    27   1
    28    14    28   1
@<TRIPOS>SUBSTRUCTURE
     1  X8Z      2

