@<TRIPOS>MOLECULE
2x8z_ligand_079
    28    28
SMALL
GAST_HUCK
****
This file was generated by PARSER (from files_GN.cpp)

@<TRIPOS>ATOM
      1 O1         24.8558    5.6275  -39.8863 O.2         1 X8Z      -0.3964
      2 C4         25.4318    5.9075  -38.8416 C.2         1 X8Z       0.1838
      3 C2         26.8510    6.2817  -39.0583 C.3         1 X8Z       0.0548
      4 C1         27.4189    7.3951  -38.1300 C.3         1 X8Z       0.0101
      5 S          28.8601    8.2659  -38.7938 S.3         1 X8Z      -0.1756
      6 C3         27.7552    5.0201  -39.1327 C.3         1 X8Z      -0.0446
      7 N          24.7040    5.8393  -37.7042 N.am        1 X8Z      -0.2572
      8 C8         25.1699    5.9769  -36.3452 C.3         1 X8Z       0.0971
      9 C9         26.2319    5.0289  -35.9665 C.2         1 X8Z       0.0603
     10 O3         26.2187    3.7641  -36.4474 O.co2       1 X8Z      -0.5666
     11 O2         26.9594    5.2754  -34.8546 O.co2       1 X8Z      -0.5666
     12 C5         23.2718    5.6723  -37.7366 C.3         1 X8Z       0.0362
     13 C6         22.7444    6.0928  -36.3592 C.3         1 X8Z      -0.0288
     14 C7         23.9216    5.7861  -35.4369 C.3         1 X8Z      -0.0159
     15 H1         26.9119    6.7191  -40.0682 H           1 X8Z       0.0543
     16 H2         27.7201    6.9705  -37.1711 H           1 X8Z       0.0401
     17 H3         26.6432    8.1451  -37.9636 H           1 X8Z       0.0401
     18 H4         28.9507    9.0768  -37.7047 H           1 X8Z       0.1018
     19 H5         27.3515    4.2797  -39.8339 H           1 X8Z       0.0257
     20 H6         27.8472    4.5569  -38.1504 H           1 X8Z       0.0257
     21 H7         28.7577    5.2930  -39.4793 H           1 X8Z       0.0257
     22 H8         25.5435    6.9958  -36.2117 H           1 X8Z       0.0728
     23 H9         23.0233    4.6268  -37.9341 H           1 X8Z       0.0524
     24 H10        22.8049    6.3036  -38.4984 H           1 X8Z       0.0524
     25 H11        21.8423    5.5458  -36.0785 H           1 X8Z       0.0286
     26 H12        22.5294    7.1625  -36.3390 H           1 X8Z       0.0286
     27 H13        23.9317    6.4638  -34.5792 H           1 X8Z       0.0306
     28 H14        23.8154    4.7582  -35.0702 H           1 X8Z       0.0306
@<TRIPOS>BOND
     1     1     2   2
     2     2     3   1
     3     2     7  am
     4     3     4   1
     5     3     6   1
     6     4     5   1
     7     7     8   1
     8     7    12   1
     9     8     9   1
    10     8    14   1
    11     9    10  ar
    12     9    11  ar
    13    12    13   1
    14    13    14   1
    15     3    15   1
    16     4    16   1
    17     4    17   1
    18     5    18   1
    19     6    19   1
    20     6    20   1
    21     6    21   1
    22     8    22   1
    23    12    23   1
    24    12    24   1
    25    13    25   1
    26    13    26   1
    27    14    27   1
    28    14    28   1
@<TRIPOS>SUBSTRUCTURE
     1  X8Z      2

