@<TRIPOS>MOLECULE
2x8z_ligand_013
    28    28
SMALL
GAST_HUCK
****
This file was generated by PARSER (from files_GN.cpp)

@<TRIPOS>ATOM
      1 O1         28.0218    6.8557  -39.8730 O.2         1 X8Z      -0.3964
      2 C4         28.1293    6.3742  -38.7478 C.2         1 X8Z       0.1838
      3 C2         26.8724    6.3927  -37.9603 C.3         1 X8Z       0.0548
      4 C1         26.6717    5.2283  -36.9244 C.3         1 X8Z       0.0101
      5 S          24.9274    4.9532  -36.4760 S.3         1 X8Z      -0.1756
      6 C3         26.6562    7.8022  -37.3202 C.3         1 X8Z      -0.0446
      7 N          29.3700    6.0177  -38.3482 N.am        1 X8Z      -0.2572
      8 C8         30.5503    6.0789  -39.1944 C.3         1 X8Z       0.0971
      9 C9         30.5243    5.3436  -40.4839 C.2         1 X8Z       0.0603
     10 O3         29.3682    4.9412  -41.0707 O.co2       1 X8Z      -0.5666
     11 O2         31.6944    5.0577  -41.1153 O.co2       1 X8Z      -0.5666
     12 C5         29.6994    5.6371  -37.0082 C.3         1 X8Z       0.0362
     13 C6         31.2219    5.7846  -36.8886 C.3         1 X8Z      -0.0288
     14 C7         31.7111    5.5457  -38.3136 C.3         1 X8Z      -0.0159
     15 H1         26.0408    6.2705  -38.6848 H           1 X8Z       0.0543
     16 H2         27.2159    5.4606  -36.0126 H           1 X8Z       0.0401
     17 H3         27.0580    4.2942  -37.3385 H           1 X8Z       0.0401
     18 H4         25.1511    5.0373  -35.1240 H           1 X8Z       0.1018
     19 H5         26.6637    8.5703  -38.0942 H           1 X8Z       0.0257
     20 H6         27.4411    8.0261  -36.6024 H           1 X8Z       0.0257
     21 H7         25.6969    7.8446  -36.8061 H           1 X8Z       0.0257
     22 H8         30.7398    7.1329  -39.4209 H           1 X8Z       0.0728
     23 H9         29.4062    4.5912  -36.8315 H           1 X8Z       0.0524
     24 H10        29.2387    6.2785  -36.2566 H           1 X8Z       0.0524
     25 H11        31.6430    5.0637  -36.1817 H           1 X8Z       0.0286
     26 H12        31.4787    6.8007  -36.5690 H           1 X8Z       0.0286
     27 H13        32.6517    6.0651  -38.5109 H           1 X8Z       0.0306
     28 H14        31.8557    4.4696  -38.4564 H           1 X8Z       0.0306
@<TRIPOS>BOND
     1     1     2   2
     2     2     3   1
     3     2     7  am
     4     3     4   1
     5     3     6   1
     6     4     5   1
     7     7     8   1
     8     7    12   1
     9     8     9   1
    10     8    14   1
    11     9    10  ar
    12     9    11  ar
    13    12    13   1
    14    13    14   1
    15     3    15   1
    16     4    16   1
    17     4    17   1
    18     5    18   1
    19     6    19   1
    20     6    20   1
    21     6    21   1
    22     8    22   1
    23    12    23   1
    24    12    24   1
    25    13    25   1
    26    13    26   1
    27    14    27   1
    28    14    28   1
@<TRIPOS>SUBSTRUCTURE
     1  X8Z      2

