@<TRIPOS>MOLECULE
2x8z_ligand_028
    28    28
SMALL
GAST_HUCK
****
This file was generated by PARSER (from files_GN.cpp)

@<TRIPOS>ATOM
      1 O1         26.1749    4.6106  -37.3060 O.2         1 X8Z      -0.3964
      2 C4         26.2015    5.6099  -36.5914 C.2         1 X8Z       0.1838
      3 C2         27.5571    6.1300  -36.3152 C.3         1 X8Z       0.0548
      4 C1         27.7115    7.6695  -36.5363 C.3         1 X8Z       0.0101
      5 S          29.3792    8.2069  -36.9892 S.3         1 X8Z      -0.1756
      6 C3         28.0835    5.6380  -34.9337 C.3         1 X8Z      -0.0446
      7 N          25.0156    6.0743  -36.1404 N.am        1 X8Z      -0.2572
      8 C8         23.7372    5.5115  -36.5206 C.3         1 X8Z       0.0971
      9 C9         23.4813    5.4732  -37.9782 C.2         1 X8Z       0.0603
     10 O3         22.8046    4.4269  -38.4981 O.co2       1 X8Z      -0.5666
     11 O2         23.6060    6.5950  -38.7277 O.co2       1 X8Z      -0.5666
     12 C5         24.8497    7.1647  -35.2238 C.3         1 X8Z       0.0362
     13 C6         23.4042    7.0876  -34.7053 C.3         1 X8Z      -0.0288
     14 C7         22.6522    6.3794  -35.8372 C.3         1 X8Z      -0.0159
     15 H1         28.2353    5.6699  -37.0451 H           1 X8Z       0.0543
     16 H2         27.4123    8.2212  -35.6404 H           1 X8Z       0.0401
     17 H3         27.0656    7.9936  -37.3596 H           1 X8Z       0.0401
     18 H4         29.8979    7.9970  -35.7480 H           1 X8Z       0.1018
     19 H5         28.0251    4.5496  -34.8664 H           1 X8Z       0.0257
     20 H6         27.5146    6.0625  -34.1071 H           1 X8Z       0.0257
     21 H7         29.1280    5.9195  -34.7996 H           1 X8Z       0.0257
     22 H8         23.6788    4.4946  -36.1187 H           1 X8Z       0.0728
     23 H9         25.0006    8.1080  -35.7461 H           1 X8Z       0.0524
     24 H10        25.5261    7.1100  -34.3733 H           1 X8Z       0.0524
     25 H11        22.9837    8.0772  -34.4998 H           1 X8Z       0.0286
     26 H12        23.3550    6.4820  -33.7966 H           1 X8Z       0.0286
     27 H13        21.8360    5.7593  -35.4677 H           1 X8Z       0.0306
     28 H14        22.2300    7.1350  -36.5030 H           1 X8Z       0.0306
@<TRIPOS>BOND
     1     1     2   2
     2     2     3   1
     3     2     7  am
     4     3     4   1
     5     3     6   1
     6     4     5   1
     7     7     8   1
     8     7    12   1
     9     8     9   1
    10     8    14   1
    11     9    10  ar
    12     9    11  ar
    13    12    13   1
    14    13    14   1
    15     3    15   1
    16     4    16   1
    17     4    17   1
    18     5    18   1
    19     6    19   1
    20     6    20   1
    21     6    21   1
    22     8    22   1
    23    12    23   1
    24    12    24   1
    25    13    25   1
    26    13    26   1
    27    14    27   1
    28    14    28   1
@<TRIPOS>SUBSTRUCTURE
     1  X8Z      2

