@<TRIPOS>MOLECULE
2x8z_ligand_033
    28    28
SMALL
GAST_HUCK
****
This file was generated by PARSER (from files_GN.cpp)

@<TRIPOS>ATOM
      1 O1         25.7681   -3.5701  -45.6168 O.2         1 X8Z      -0.3964
      2 C4         26.0729   -2.7583  -46.4858 C.2         1 X8Z       0.1838
      3 C2         26.4927   -1.4327  -45.9957 C.3         1 X8Z       0.0548
      4 C1         25.3471   -0.7610  -45.1769 C.3         1 X8Z       0.0101
      5 S          25.5817    1.0227  -44.9718 S.3         1 X8Z      -0.1756
      6 C3         27.8215   -1.5241  -45.1892 C.3         1 X8Z      -0.0446
      7 N          25.9772   -3.1349  -47.7772 N.am        1 X8Z      -0.2572
      8 C8         25.6414   -4.4749  -48.2091 C.3         1 X8Z       0.0971
      9 C9         26.5183   -5.5421  -47.6704 C.2         1 X8Z       0.0603
     10 O3         27.8617   -5.4046  -47.6761 O.co2       1 X8Z      -0.5666
     11 O2         25.9866   -6.6937  -47.1983 O.co2       1 X8Z      -0.5666
     12 C5         26.1215   -2.2390  -48.8894 C.3         1 X8Z       0.0362
     13 C6         25.5419   -2.9670  -50.1130 C.3         1 X8Z      -0.0288
     14 C7         25.7207   -4.4442  -49.7559 C.3         1 X8Z      -0.0159
     15 H1         26.7107   -0.7743  -46.8396 H           1 X8Z       0.0543
     16 H2         25.2673   -1.2199  -44.1861 H           1 X8Z       0.0401
     17 H3         24.3902   -0.9005  -45.6916 H           1 X8Z       0.0401
     18 H4         24.3882    1.1990  -44.3446 H           1 X8Z       0.1018
     19 H5         28.6069   -1.9683  -45.8026 H           1 X8Z       0.0257
     20 H6         27.6930   -2.1266  -44.2887 H           1 X8Z       0.0257
     21 H7         28.1516   -0.5267  -44.8899 H           1 X8Z       0.0257
     22 H8         24.6074   -4.6795  -47.9123 H           1 X8Z       0.0728
     23 H9         27.1805   -2.0132  -49.0423 H           1 X8Z       0.0524
     24 H10        25.5636   -1.3099  -48.7452 H           1 X8Z       0.0524
     25 H11        26.0738   -2.7017  -51.0317 H           1 X8Z       0.0286
     26 H12        24.4796   -2.7326  -50.2324 H           1 X8Z       0.0286
     27 H13        24.9447   -5.0660  -50.2119 H           1 X8Z       0.0306
     28 H14        26.6981   -4.7723  -50.1253 H           1 X8Z       0.0306
@<TRIPOS>BOND
     1     1     2   2
     2     2     3   1
     3     2     7  am
     4     3     4   1
     5     3     6   1
     6     4     5   1
     7     7     8   1
     8     7    12   1
     9     8     9   1
    10     8    14   1
    11     9    10  ar
    12     9    11  ar
    13    12    13   1
    14    13    14   1
    15     3    15   1
    16     4    16   1
    17     4    17   1
    18     5    18   1
    19     6    19   1
    20     6    20   1
    21     6    21   1
    22     8    22   1
    23    12    23   1
    24    12    24   1
    25    13    25   1
    26    13    26   1
    27    14    27   1
    28    14    28   1
@<TRIPOS>SUBSTRUCTURE
     1  X8Z      2

