@<TRIPOS>MOLECULE
2x8z_ligand_044
    28    28
SMALL
GAST_HUCK
****
This file was generated by PARSER (from files_GN.cpp)

@<TRIPOS>ATOM
      1 O1         25.2032   11.1856  -45.9912 O.2         1 X8Z      -0.3964
      2 C4         26.2638   10.9684  -45.4105 C.2         1 X8Z       0.1838
      3 C2         26.3062    9.6523  -44.7278 C.3         1 X8Z       0.0548
      4 C1         27.0726    8.5381  -45.5113 C.3         1 X8Z       0.0101
      5 S          28.8796    8.5164  -45.4495 S.3         1 X8Z      -0.1756
      6 C3         26.6079    9.6934  -43.2035 C.3         1 X8Z      -0.0446
      7 N          27.1986   11.9415  -45.4982 N.am        1 X8Z      -0.2572
      8 C8         27.0022   13.1658  -46.2592 C.3         1 X8Z       0.0971
      9 C9         26.7688   12.9858  -47.7130 C.2         1 X8Z       0.0603
     10 O3         26.6697   14.0671  -48.5183 O.co2       1 X8Z      -0.5666
     11 O2         26.7927   11.7622  -48.2895 O.co2       1 X8Z      -0.5666
     12 C5         28.4560   11.9733  -44.8118 C.3         1 X8Z       0.0362
     13 C6         28.8494   13.4557  -44.7314 C.3         1 X8Z      -0.0288
     14 C7         28.2589   14.0364  -46.0160 C.3         1 X8Z      -0.0159
     15 H1         25.2734    9.2702  -44.7369 H           1 X8Z       0.0543
     16 H2         26.7942    8.5959  -46.5637 H           1 X8Z       0.0401
     17 H3         26.7409    7.5591  -45.1535 H           1 X8Z       0.0401
     18 H4         28.9353    7.7601  -44.3193 H           1 X8Z       0.1018
     19 H5         26.1128   10.5498  -42.7400 H           1 X8Z       0.0257
     20 H6         27.6713    9.7451  -42.9865 H           1 X8Z       0.0257
     21 H7         26.2323    8.7846  -42.7276 H           1 X8Z       0.0257
     22 H8         26.1345   13.6861  -45.8443 H           1 X8Z       0.0728
     23 H9         29.2042   11.4332  -45.3933 H           1 X8Z       0.0524
     24 H10        28.4216   11.5873  -43.7981 H           1 X8Z       0.0524
     25 H11        29.9338   13.5905  -44.6809 H           1 X8Z       0.0286
     26 H12        28.3860   13.9274  -43.8587 H           1 X8Z       0.0286
     27 H13        28.0068   15.0937  -45.8981 H           1 X8Z       0.0306
     28 H14        28.9930   13.9319  -46.8222 H           1 X8Z       0.0306
@<TRIPOS>BOND
     1     1     2   2
     2     2     3   1
     3     2     7  am
     4     3     4   1
     5     3     6   1
     6     4     5   1
     7     7     8   1
     8     7    12   1
     9     8     9   1
    10     8    14   1
    11     9    10  ar
    12     9    11  ar
    13    12    13   1
    14    13    14   1
    15     3    15   1
    16     4    16   1
    17     4    17   1
    18     5    18   1
    19     6    19   1
    20     6    20   1
    21     6    21   1
    22     8    22   1
    23    12    23   1
    24    12    24   1
    25    13    25   1
    26    13    26   1
    27    14    27   1
    28    14    28   1
@<TRIPOS>SUBSTRUCTURE
     1  X8Z      2

