@<TRIPOS>MOLECULE
2x8z_ligand_042
    28    28
SMALL
GAST_HUCK
****
This file was generated by PARSER (from files_GN.cpp)

@<TRIPOS>ATOM
      1 O1         27.5018   -4.0368  -44.5134 O.2         1 X8Z      -0.3964
      2 C4         27.1735   -3.8706  -43.3427 C.2         1 X8Z       0.1838
      3 C2         28.2516   -3.3462  -42.4720 C.3         1 X8Z       0.0548
      4 C1         27.9576   -1.9561  -41.8216 C.3         1 X8Z       0.0101
      5 S          27.1059   -0.7955  -42.9215 S.3         1 X8Z      -0.1756
      6 C3         28.7685   -4.3780  -41.4279 C.3         1 X8Z      -0.0446
      7 N          25.8895   -4.1295  -43.0175 N.am        1 X8Z      -0.2572
      8 C8         24.8516   -4.4105  -44.0011 C.3         1 X8Z       0.0971
      9 C9         24.7052   -3.3594  -45.0367 C.2         1 X8Z       0.0603
     10 O3         24.0699   -2.1931  -44.7714 O.co2       1 X8Z      -0.5666
     11 O2         25.2420   -3.5323  -46.2728 O.co2       1 X8Z      -0.5666
     12 C5         25.3732   -4.2040  -41.6862 C.3         1 X8Z       0.0362
     13 C6         24.0172   -4.9210  -41.7824 C.3         1 X8Z      -0.0288
     14 C7         23.5340   -4.5866  -43.1985 C.3         1 X8Z      -0.0159
     15 H1         29.1226   -3.1526  -43.1096 H           1 X8Z       0.0543
     16 H2         28.9006   -1.4814  -41.5330 H           1 X8Z       0.0401
     17 H3         27.3730   -2.0671  -40.9090 H           1 X8Z       0.0401
     18 H4         26.4588   -0.1513  -41.9099 H           1 X8Z       0.1018
     19 H5         28.8613   -5.3688  -41.8839 H           1 X8Z       0.0257
     20 H6         28.1130   -4.4523  -40.5639 H           1 X8Z       0.0257
     21 H7         29.7608   -4.0781  -41.0687 H           1 X8Z       0.0257
     22 H8         25.0890   -5.3646  -44.4862 H           1 X8Z       0.0728
     23 H9         25.2236   -3.1965  -41.2880 H           1 X8Z       0.0524
     24 H10        26.0125   -4.7760  -41.0199 H           1 X8Z       0.0524
     25 H11        23.3233   -4.5645  -41.0198 H           1 X8Z       0.0286
     26 H12        24.1495   -6.0041  -41.6784 H           1 X8Z       0.0286
     27 H13        22.9061   -5.3836  -43.6094 H           1 X8Z       0.0306
     28 H14        22.9466   -3.6618  -43.1552 H           1 X8Z       0.0306
@<TRIPOS>BOND
     1     1     2   2
     2     2     3   1
     3     2     7  am
     4     3     4   1
     5     3     6   1
     6     4     5   1
     7     7     8   1
     8     7    12   1
     9     8     9   1
    10     8    14   1
    11     9    10  ar
    12     9    11  ar
    13    12    13   1
    14    13    14   1
    15     3    15   1
    16     4    16   1
    17     4    17   1
    18     5    18   1
    19     6    19   1
    20     6    20   1
    21     6    21   1
    22     8    22   1
    23    12    23   1
    24    12    24   1
    25    13    25   1
    26    13    26   1
    27    14    27   1
    28    14    28   1
@<TRIPOS>SUBSTRUCTURE
     1  X8Z      2

