@<TRIPOS>MOLECULE
2x8z_ligand_057
    28    28
SMALL
GAST_HUCK
****
This file was generated by PARSER (from files_GN.cpp)

@<TRIPOS>ATOM
      1 O1         25.6267    7.2354  -37.0780 O.2         1 X8Z      -0.3964
      2 C4         25.5531    6.0839  -36.6509 C.2         1 X8Z       0.1838
      3 C2         24.2060    5.4945  -36.6555 C.3         1 X8Z       0.0548
      4 C1         23.2753    6.0006  -35.4900 C.3         1 X8Z       0.0101
      5 S          23.7990    7.4757  -34.5695 S.3         1 X8Z      -0.1756
      6 C3         23.5209    5.6115  -38.0503 C.3         1 X8Z      -0.0446
      7 N          26.6653    5.5188  -36.1421 N.am        1 X8Z      -0.2572
      8 C8         27.9570    6.1646  -36.1102 C.3         1 X8Z       0.0971
      9 C9         28.4352    6.6172  -37.4359 C.2         1 X8Z       0.0603
     10 O3         28.7570    5.7243  -38.3979 O.co2       1 X8Z      -0.5666
     11 O2         28.4443    7.9329  -37.7521 O.co2       1 X8Z      -0.5666
     12 C5         26.6843    4.2485  -35.4780 C.3         1 X8Z       0.0362
     13 C6         27.9964    4.2121  -34.6784 C.3         1 X8Z      -0.0288
     14 C7         28.9225    5.1320  -35.4770 C.3         1 X8Z      -0.0159
     15 H1         24.3161    4.4131  -36.5274 H           1 X8Z       0.0543
     16 H2         23.1446    5.1967  -34.7618 H           1 X8Z       0.0401
     17 H3         22.2786    6.2332  -35.8710 H           1 X8Z       0.0401
     18 H4         22.6580    7.4971  -33.8234 H           1 X8Z       0.1018
     19 H5         24.2267    5.3676  -38.8497 H           1 X8Z       0.0257
     20 H6         23.1409    6.6196  -38.2208 H           1 X8Z       0.0257
     21 H7         22.6847    4.9129  -38.1097 H           1 X8Z       0.0257
     22 H8         27.8854    7.0267  -35.4388 H           1 X8Z       0.0728
     23 H9         26.6664    3.4500  -36.2211 H           1 X8Z       0.0524
     24 H10        25.8475    4.1202  -34.7890 H           1 X8Z       0.0524
     25 H11        28.3956    3.1978  -34.5962 H           1 X8Z       0.0286
     26 H12        27.8414    4.6197  -33.6739 H           1 X8Z       0.0286
     27 H13        29.6703    5.6056  -34.8353 H           1 X8Z       0.0306
     28 H14        29.4401    4.5348  -36.2348 H           1 X8Z       0.0306
@<TRIPOS>BOND
     1     1     2   2
     2     2     3   1
     3     2     7  am
     4     3     4   1
     5     3     6   1
     6     4     5   1
     7     7     8   1
     8     7    12   1
     9     8     9   1
    10     8    14   1
    11     9    10  ar
    12     9    11  ar
    13    12    13   1
    14    13    14   1
    15     3    15   1
    16     4    16   1
    17     4    17   1
    18     5    18   1
    19     6    19   1
    20     6    20   1
    21     6    21   1
    22     8    22   1
    23    12    23   1
    24    12    24   1
    25    13    25   1
    26    13    26   1
    27    14    27   1
    28    14    28   1
@<TRIPOS>SUBSTRUCTURE
     1  X8Z      2

