@<TRIPOS>MOLECULE
2x97_ligand_032
    63    63
SMALL
GAST_HUCK
****
This file was generated by PARSER (from files_GN.cpp)

@<TRIPOS>ATOM
      1 CAP        31.1722  -10.3772   36.0431 C.ar        1 RX4      -0.0602
      2 CAN        30.9276  -10.8663   34.7455 C.ar        1 RX4      -0.0686
      3 CAM        29.6222  -11.2284   34.3665 C.ar        1 RX4      -0.0687
      4 CAO        28.5634  -11.0958   35.2821 C.ar        1 RX4      -0.0686
      5 CAQ        28.8087  -10.6035   36.5776 C.ar        1 RX4      -0.0602
      6 CBC        30.1170  -10.2404   36.9809 C.ar        1 RX4      -0.0393
      7 CAS        30.3782   -9.7931   38.3748 C.3         1 RX4       0.0205
      8 CBG        29.7294   -8.4237   38.7595 C.3         1 RX4       0.1158
      9 NAW        30.2728   -7.3702   37.9383 N.am        1 RX4      -0.2644
     10 CBB        29.7893   -6.1331   37.8147 C.2         1 RX4       0.2049
     11 OAI        28.7759   -5.8158   38.4401 O.2         1 RX4      -0.3944
     12 CBF        30.4892   -5.1304   37.0103 C.3         1 RX4       0.1421
     13 CAR        31.6676   -4.4961   37.8138 C.3         1 RX4       0.0406
     14 CAZ        32.3166   -3.3073   37.2178 C.2         1 RX4       0.0393
     15 OAK        33.1022   -2.5204   37.9801 O.co2       1 RX4      -0.5688
     16 OAG        32.1500   -2.9616   35.9233 O.co2       1 RX4      -0.5688
     17 NAU        29.5996   -4.0705   36.5944 N.am        1 RX4      -0.2643
     18 CAX        28.9182   -3.9979   35.4602 C.2         1 RX4       0.1752
     19 CAA        28.0048   -2.8943   35.2660 C.3         1 RX4       0.0258
     20 OAE        29.0308   -4.8408   34.5802 O.2         1 RX4      -0.3972
     21 P1         29.9005   -8.0620   40.3976 P.3         1 RX4       0.0153
     22 O4         30.2637   -6.6719   40.5749 O.co2       1 RX4      -0.6174
     23 O3         30.9989   -8.8206   40.9545 O.co2       1 RX4      -0.6174
     24 CAT        28.5050   -8.4300   41.2542 C.3         1 RX4       0.0350
     25 CBD        28.4301   -8.2186   42.8051 C.3         1 RX4       0.0618
     26 CAB        29.7132   -8.6181   43.5824 C.3         1 RX4      -0.0438
     27 CBA        27.9399   -6.8903   43.1868 C.2         1 RX4       0.1825
     28 OAH        26.8338   -6.7965   43.7067 O.2         1 RX4      -0.3966
     29 N          28.6896   -5.8042   43.0286 N.am        1 RX4      -0.2656
     30 CA         28.3540   -4.4586   43.4140 C.3         1 RX4       0.1278
     31 CB         29.6706   -3.6512   43.5578 C.3         1 RX4      -0.0244
     32 C          27.4418   -3.7822   42.4962 C.2         1 RX4       0.1989
     33 O          27.1201   -4.2673   41.4192 O.2         1 RX4      -0.3947
     34 NAD        26.9508   -2.6002   42.8022 N.am        1 RX4      -0.2990
     35 H1         32.1296  -10.1245   36.2972 H           1 RX4       0.0557
     36 H2         31.6953  -10.9554   34.0755 H           1 RX4       0.0599
     37 H3         29.4438  -11.5946   33.4287 H           1 RX4       0.0559
     38 H4         27.6161  -11.3627   35.0076 H           1 RX4       0.0599
     39 H5         28.0287  -10.5336   37.2368 H           1 RX4       0.0557
     40 H6         31.4516   -9.7197   38.5422 H           1 RX4       0.0465
     41 H7         30.0101  -10.5799   39.0388 H           1 RX4       0.0465
     42 H8         28.6612   -8.5092   38.5506 H           1 RX4       0.0788
     43 H9         31.0860   -7.5704   37.4455 H           1 RX4       0.1872
     44 H10        30.9111   -5.6320   36.1343 H           1 RX4       0.0819
     45 H11        32.4523   -5.2421   37.9704 H           1 RX4       0.0478
     46 H12        31.3019   -4.2029   38.8027 H           1 RX4       0.0478
     47 H13        29.4481   -3.3584   37.2387 H           1 RX4       0.1884
     48 H14        27.5296   -2.9343   34.2834 H           1 RX4       0.0467
     49 H15        28.5352   -1.9455   35.3495 H           1 RX4       0.0467
     50 H16        27.2276   -2.9362   36.0279 H           1 RX4       0.0467
     51 H17        28.2844   -9.4850   41.0430 H           1 RX4       0.0493
     52 H18        27.6952   -7.8533   40.7991 H           1 RX4       0.0493
     53 H19        27.6697   -8.9402   43.1357 H           1 RX4       0.0551
     54 H20        29.5257   -8.5827   44.6582 H           1 RX4       0.0257
     55 H21        30.5393   -7.9456   43.3616 H           1 RX4       0.0257
     56 H22        30.0096   -9.6325   43.3201 H           1 RX4       0.0257
     57 H23        29.5716   -5.9386   42.6441 H           1 RX4       0.1883
     58 H24        27.8825   -4.5086   44.4009 H           1 RX4       0.0797
     59 H25        29.4718   -2.6488   43.9435 H           1 RX4       0.0277
     60 H26        30.1772   -3.5629   42.5926 H           1 RX4       0.0277
     61 H27        30.3420   -4.1521   44.2574 H           1 RX4       0.0277
     62 H28        26.3438   -2.1404   42.1978 H           1 RX4       0.1815
     63 H29        27.1946   -2.1830   43.6459 H           1 RX4       0.1815
@<TRIPOS>BOND
     1     1     2  ar
     2     1     6  ar
     3     2     3  ar
     4     3     4  ar
     5     4     5  ar
     6     5     6  ar
     7     6     7   1
     8     7     8   1
     9     8     9   1
    10     8    21   1
    11     9    10  am
    12    10    11   2
    13    10    12   1
    14    12    13   1
    15    12    17   1
    16    13    14   1
    17    14    15  ar
    18    14    16  ar
    19    17    18  am
    20    18    19   1
    21    18    20   2
    22    21    22  ar
    23    21    23  ar
    24    21    24   1
    25    24    25   1
    26    25    26   1
    27    25    27   1
    28    27    28   2
    29    27    29  am
    30    29    30   1
    31    30    31   1
    32    30    32   1
    33    32    33   2
    34    32    34  am
    35     1    35   1
    36     2    36   1
    37     3    37   1
    38     4    38   1
    39     5    39   1
    40     7    40   1
    41     7    41   1
    42     8    42   1
    43     9    43   1
    44    12    44   1
    45    13    45   1
    46    13    46   1
    47    17    47   1
    48    19    48   1
    49    19    49   1
    50    19    50   1
    51    24    51   1
    52    24    52   1
    53    25    53   1
    54    26    54   1
    55    26    55   1
    56    26    56   1
    57    29    57   1
    58    30    58   1
    59    31    59   1
    60    31    60   1
    61    31    61   1
    62    34    62   1
    63    34    63   1
@<TRIPOS>SUBSTRUCTURE
     1  RX4      1

