@<TRIPOS>MOLECULE
2x97_ligand_081
    63    63
SMALL
GAST_HUCK
****
This file was generated by PARSER (from files_GN.cpp)

@<TRIPOS>ATOM
      1 CAP        27.3376  -11.5844   44.7015 C.ar        1 RX4      -0.0602
      2 CAN        27.3017  -12.4775   45.7879 C.ar        1 RX4      -0.0686
      3 CAM        27.7452  -12.0644   47.0555 C.ar        1 RX4      -0.0687
      4 CAO        28.1998  -10.7450   47.2416 C.ar        1 RX4      -0.0686
      5 CAQ        28.2126   -9.8462   46.1567 C.ar        1 RX4      -0.0602
      6 CBC        27.8107  -10.2571   44.8625 C.ar        1 RX4      -0.0393
      7 CAS        27.8122   -9.2978   43.7173 C.3         1 RX4       0.0205
      8 CBG        29.1948   -8.6301   43.3931 C.3         1 RX4       0.1158
      9 NAW        29.4728   -7.5893   44.3494 N.am        1 RX4      -0.2644
     10 CBB        30.6641   -7.1711   44.7782 C.2         1 RX4       0.2049
     11 OAI        31.6961   -7.6388   44.3112 O.2         1 RX4      -0.3944
     12 CBF        30.7673   -6.2590   45.9193 C.3         1 RX4       0.1421
     13 CAR        31.0222   -7.0811   47.2216 C.3         1 RX4       0.0406
     14 CAZ        30.7167   -6.3567   48.4671 C.2         1 RX4       0.0393
     15 OAK        29.4378   -6.1808   48.8594 O.co2       1 RX4      -0.5688
     16 OAG        31.7063   -6.0220   49.3319 O.co2       1 RX4      -0.5688
     17 NAU        29.6161   -5.3964   46.0353 N.am        1 RX4      -0.2643
     18 CAX        29.3457   -4.3534   45.2582 C.2         1 RX4       0.1752
     19 CAA        28.1376   -3.5933   45.4950 C.3         1 RX4       0.0258
     20 OAE        30.0964   -4.0018   44.3545 O.2         1 RX4      -0.3972
     21 P1         29.2704   -8.0230   41.8280 P.3         1 RX4       0.0153
     22 O4         29.5230   -9.1491   40.9600 O.co2       1 RX4      -0.6174
     23 O3         30.4838   -7.2619   41.6710 O.co2       1 RX4      -0.6174
     24 CAT        27.9732   -7.0842   41.3057 C.3         1 RX4       0.0350
     25 CBD        27.5082   -7.2749   39.8157 C.3         1 RX4       0.0618
     26 CAB        26.6733   -8.5825   39.6251 C.3         1 RX4      -0.0438
     27 CBA        26.7339   -6.1573   39.2645 C.2         1 RX4       0.1825
     28 OAH        26.2737   -5.2940   40.0047 O.2         1 RX4      -0.3966
     29 N          26.4711   -6.1425   37.9575 N.am        1 RX4      -0.2656
     30 CA         25.6738   -5.1953   37.2219 C.3         1 RX4       0.1278
     31 CB         26.5970   -4.4416   36.2281 C.3         1 RX4      -0.0244
     32 C          24.5663   -5.8385   36.5311 C.2         1 RX4       0.1989
     33 O          24.5538   -7.0396   36.2906 O.2         1 RX4      -0.3947
     34 NAD        23.5314   -5.1285   36.1301 N.am        1 RX4      -0.2990
     35 H1         27.0023  -11.9062   43.7892 H           1 RX4       0.0557
     36 H2         26.9453  -13.4269   45.6545 H           1 RX4       0.0599
     37 H3         27.7255  -12.7165   47.8424 H           1 RX4       0.0559
     38 H4         28.5077  -10.4390   48.1675 H           1 RX4       0.0599
     39 H5         28.5008   -8.8806   46.3222 H           1 RX4       0.0557
     40 H6         27.0737   -8.5230   43.9376 H           1 RX4       0.0465
     41 H7         27.4467   -9.8240   42.8309 H           1 RX4       0.0465
     42 H8         29.9626   -9.4062   43.4724 H           1 RX4       0.0788
     43 H9         28.7003   -7.2019   44.7894 H           1 RX4       0.1872
     44 H10        31.6444   -5.6177   45.7768 H           1 RX4       0.0819
     45 H11        32.0737   -7.3802   47.2374 H           1 RX4       0.0478
     46 H12        30.4286   -7.9964   47.2190 H           1 RX4       0.0478
     47 H13        28.9805   -5.5939   46.7454 H           1 RX4       0.1884
     48 H14        28.0541   -2.7386   44.8196 H           1 RX4       0.0467
     49 H15        28.1262   -3.2171   46.5190 H           1 RX4       0.0467
     50 H16        27.2653   -4.2291   45.3419 H           1 RX4       0.0467
     51 H17        28.2672   -6.0383   41.4529 H           1 RX4       0.0493
     52 H18        27.1168   -7.2625   41.9622 H           1 RX4       0.0493
     53 H19        28.4129   -7.3567   39.2032 H           1 RX4       0.0551
     54 H20        26.4924   -8.7772   38.5666 H           1 RX4       0.0257
     55 H21        25.7090   -8.4983   40.1295 H           1 RX4       0.0257
     56 H22        27.1815   -9.4573   40.0258 H           1 RX4       0.0257
     57 H23        26.8592   -6.8666   37.4347 H           1 RX4       0.1883
     58 H24        25.2503   -4.4510   37.9027 H           1 RX4       0.0797
     59 H25        26.0375   -3.6764   35.6853 H           1 RX4       0.0277
     60 H26        27.0350   -5.1326   35.5031 H           1 RX4       0.0277
     61 H27        27.4081   -3.9462   36.7696 H           1 RX4       0.0277
     62 H28        22.7870   -5.5606   35.6845 H           1 RX4       0.1815
     63 H29        23.5193   -4.1682   36.2788 H           1 RX4       0.1815
@<TRIPOS>BOND
     1     1     2  ar
     2     1     6  ar
     3     2     3  ar
     4     3     4  ar
     5     4     5  ar
     6     5     6  ar
     7     6     7   1
     8     7     8   1
     9     8     9   1
    10     8    21   1
    11     9    10  am
    12    10    11   2
    13    10    12   1
    14    12    13   1
    15    12    17   1
    16    13    14   1
    17    14    15  ar
    18    14    16  ar
    19    17    18  am
    20    18    19   1
    21    18    20   2
    22    21    22  ar
    23    21    23  ar
    24    21    24   1
    25    24    25   1
    26    25    26   1
    27    25    27   1
    28    27    28   2
    29    27    29  am
    30    29    30   1
    31    30    31   1
    32    30    32   1
    33    32    33   2
    34    32    34  am
    35     1    35   1
    36     2    36   1
    37     3    37   1
    38     4    38   1
    39     5    39   1
    40     7    40   1
    41     7    41   1
    42     8    42   1
    43     9    43   1
    44    12    44   1
    45    13    45   1
    46    13    46   1
    47    17    47   1
    48    19    48   1
    49    19    49   1
    50    19    50   1
    51    24    51   1
    52    24    52   1
    53    25    53   1
    54    26    54   1
    55    26    55   1
    56    26    56   1
    57    29    57   1
    58    30    58   1
    59    31    59   1
    60    31    60   1
    61    31    61   1
    62    34    62   1
    63    34    63   1
@<TRIPOS>SUBSTRUCTURE
     1  RX4      1

