@<TRIPOS>MOLECULE
2x97_ligand_077
    63    63
SMALL
GAST_HUCK
****
This file was generated by PARSER (from files_GN.cpp)

@<TRIPOS>ATOM
      1 CAP        27.2415   -3.4105   44.8922 C.ar        1 RX4      -0.0602
      2 CAN        27.2742   -2.0326   44.6143 C.ar        1 RX4      -0.0686
      3 CAM        26.9575   -1.5621   43.3251 C.ar        1 RX4      -0.0687
      4 CAO        26.5511   -2.4718   42.3328 C.ar        1 RX4      -0.0686
      5 CAQ        26.4622   -3.8456   42.6287 C.ar        1 RX4      -0.0602
      6 CBC        26.8487   -4.3420   43.8974 C.ar        1 RX4      -0.0393
      7 CAS        26.7746   -5.7974   44.1916 C.3         1 RX4       0.0205
      8 CBG        27.9655   -6.6810   43.7056 C.3         1 RX4       0.1158
      9 NAW        29.1553   -6.4382   44.4819 N.am        1 RX4      -0.2644
     10 CBB        30.1956   -7.2433   44.5877 C.2         1 RX4       0.2049
     11 OAI        30.2740   -8.2435   43.8445 O.2         1 RX4      -0.3944
     12 CBF        31.2797   -6.9559   45.5228 C.3         1 RX4       0.1421
     13 CAR        32.3218   -5.9009   45.0212 C.3         1 RX4       0.0406
     14 CAZ        31.8315   -4.8925   44.0585 C.2         1 RX4       0.0393
     15 OAK        32.4786   -4.7143   42.8739 O.co2       1 RX4      -0.5688
     16 OAG        30.7470   -4.1253   44.3331 O.co2       1 RX4      -0.5688
     17 NAU        31.9382   -8.1484   46.0028 N.am        1 RX4      -0.2643
     18 CAX        32.5409   -9.0994   45.2972 C.2         1 RX4       0.1752
     19 CAA        32.9874  -10.2981   45.9566 C.3         1 RX4       0.0258
     20 OAE        32.6961   -9.0274   44.0834 O.2         1 RX4      -0.3972
     21 P1         28.2133   -6.7406   42.0391 P.3         1 RX4       0.0153
     22 O4         29.6046   -6.9520   41.6918 O.co2       1 RX4      -0.6174
     23 O3         27.9818   -5.4573   41.4274 O.co2       1 RX4      -0.6174
     24 CAT        27.2539   -7.8721   41.2643 C.3         1 RX4       0.0350
     25 CBD        27.6848   -9.3864   41.2396 C.3         1 RX4       0.0618
     26 CAB        28.8429   -9.6667   40.2288 C.3         1 RX4      -0.0438
     27 CBA        27.9147   -9.9657   42.5653 C.2         1 RX4       0.1825
     28 OAH        28.9692  -10.5763   42.8024 O.2         1 RX4      -0.3966
     29 N          27.0418   -9.7660   43.5372 N.am        1 RX4      -0.2656
     30 CA         27.2251  -10.0235   44.9446 C.3         1 RX4       0.1278
     31 CB         25.8891   -9.7663   45.6834 C.3         1 RX4      -0.0244
     32 C          27.7298  -11.3577   45.2309 C.2         1 RX4       0.1989
     33 O          27.0121  -12.3441   45.1305 O.2         1 RX4      -0.3947
     34 NAD        28.9400  -11.5298   45.7148 N.am        1 RX4      -0.2990
     35 H1         27.4750   -3.7296   45.8349 H           1 RX4       0.0557
     36 H2         27.5236   -1.3676   45.3472 H           1 RX4       0.0599
     37 H3         26.9887   -0.5618   43.1190 H           1 RX4       0.0559
     38 H4         26.3041   -2.1415   41.4009 H           1 RX4       0.0599
     39 H5         26.1346   -4.4787   41.8980 H           1 RX4       0.0557
     40 H6         25.8442   -6.1994   43.7777 H           1 RX4       0.0465
     41 H7         26.6789   -5.9189   45.2771 H           1 RX4       0.0465
     42 H8         27.6411   -7.6788   43.9823 H           1 RX4       0.0788
     43 H9         29.1427   -5.6715   45.0760 H           1 RX4       0.1872
     44 H10        30.8042   -6.5253   46.4123 H           1 RX4       0.0819
     45 H11        33.1766   -6.4134   44.5703 H           1 RX4       0.0478
     46 H12        32.7017   -5.3563   45.8995 H           1 RX4       0.0478
     47 H13        31.8978   -8.2925   46.9652 H           1 RX4       0.1884
     48 H14        33.4511  -11.0028   45.2567 H           1 RX4       0.0467
     49 H15        32.1346  -10.7920   46.4328 H           1 RX4       0.0467
     50 H16        33.7250  -10.0354   46.7160 H           1 RX4       0.0467
     51 H17        27.1333   -7.5401   40.2270 H           1 RX4       0.0493
     52 H18        26.2588   -7.8074   41.7130 H           1 RX4       0.0493
     53 H19        26.8260   -9.9289   40.8247 H           1 RX4       0.0551
     54 H20        28.9975  -10.7444   40.1270 H           1 RX4       0.0257
     55 H21        29.7790   -9.2175   40.5627 H           1 RX4       0.0257
     56 H22        28.5988   -9.2699   39.2406 H           1 RX4       0.0257
     57 H23        26.2490   -9.2622   43.2971 H           1 RX4       0.1883
     58 H24        27.9374   -9.2841   45.3293 H           1 RX4       0.0797
     59 H25        26.0073   -9.9013   46.7617 H           1 RX4       0.0277
     60 H26        25.1224  -10.4561   45.3272 H           1 RX4       0.0277
     61 H27        25.5423   -8.7464   45.5055 H           1 RX4       0.0277
     62 H28        29.2335  -12.4081   45.9828 H           1 RX4       0.1815
     63 H29        29.5289  -10.7688   45.8458 H           1 RX4       0.1815
@<TRIPOS>BOND
     1     1     2  ar
     2     1     6  ar
     3     2     3  ar
     4     3     4  ar
     5     4     5  ar
     6     5     6  ar
     7     6     7   1
     8     7     8   1
     9     8     9   1
    10     8    21   1
    11     9    10  am
    12    10    11   2
    13    10    12   1
    14    12    13   1
    15    12    17   1
    16    13    14   1
    17    14    15  ar
    18    14    16  ar
    19    17    18  am
    20    18    19   1
    21    18    20   2
    22    21    22  ar
    23    21    23  ar
    24    21    24   1
    25    24    25   1
    26    25    26   1
    27    25    27   1
    28    27    28   2
    29    27    29  am
    30    29    30   1
    31    30    31   1
    32    30    32   1
    33    32    33   2
    34    32    34  am
    35     1    35   1
    36     2    36   1
    37     3    37   1
    38     4    38   1
    39     5    39   1
    40     7    40   1
    41     7    41   1
    42     8    42   1
    43     9    43   1
    44    12    44   1
    45    13    45   1
    46    13    46   1
    47    17    47   1
    48    19    48   1
    49    19    49   1
    50    19    50   1
    51    24    51   1
    52    24    52   1
    53    25    53   1
    54    26    54   1
    55    26    55   1
    56    26    56   1
    57    29    57   1
    58    30    58   1
    59    31    59   1
    60    31    60   1
    61    31    61   1
    62    34    62   1
    63    34    63   1
@<TRIPOS>SUBSTRUCTURE
     1  RX4      1

