@<TRIPOS>MOLECULE
2x97_ligand_019
    63    63
SMALL
GAST_HUCK
****
This file was generated by PARSER (from files_GN.cpp)

@<TRIPOS>ATOM
      1 CAP        30.8078   -5.5136   42.5536 C.ar        1 RX4      -0.0602
      2 CAN        31.0346   -4.3375   43.2885 C.ar        1 RX4      -0.0686
      3 CAM        31.5847   -4.4058   44.5850 C.ar        1 RX4      -0.0687
      4 CAO        31.9272   -5.6593   45.1277 C.ar        1 RX4      -0.0686
      5 CAQ        31.6982   -6.8350   44.3889 C.ar        1 RX4      -0.0602
      6 CBC        31.1106   -6.7870   43.0951 C.ar        1 RX4      -0.0393
      7 CAS        30.8589   -8.0436   42.3222 C.3         1 RX4       0.0205
      8 CBG        29.4109   -8.2847   41.7651 C.3         1 RX4       0.1158
      9 NAW        29.2601   -7.6429   40.4797 N.am        1 RX4      -0.2644
     10 CBB        28.3466   -7.9111   39.5499 C.2         1 RX4       0.2049
     11 OAI        27.4133   -8.6608   39.8113 O.2         1 RX4      -0.3944
     12 CBF        28.4407   -7.3537   38.1936 C.3         1 RX4       0.1421
     13 CAR        27.2081   -6.4628   37.7856 C.3         1 RX4       0.0406
     14 CAZ        27.5203   -5.0218   37.6699 C.2         1 RX4       0.0393
     15 OAK        28.3572   -4.5893   36.6987 O.co2       1 RX4      -0.5688
     16 OAG        26.8821   -4.0965   38.4218 O.co2       1 RX4      -0.5688
     17 NAU        28.7247   -8.3887   37.2193 N.am        1 RX4      -0.2643
     18 CAX        28.0837   -9.5390   37.0243 C.2         1 RX4       0.1752
     19 CAA        28.6005  -10.4785   36.0539 C.3         1 RX4       0.0258
     20 OAE        27.0787   -9.8413   37.6581 O.2         1 RX4      -0.3972
     21 P1         28.1665   -8.0000   42.8755 P.3         1 RX4       0.0153
     22 O4         28.6519   -7.5848   44.1710 O.co2       1 RX4      -0.6174
     23 O3         27.5890   -9.2826   43.2156 O.co2       1 RX4      -0.6174
     24 CAT        26.8706   -7.0325   42.4602 C.3         1 RX4       0.0350
     25 CBD        27.1630   -5.5147   42.1939 C.3         1 RX4       0.0618
     26 CAB        25.9959   -4.9121   41.3579 C.3         1 RX4      -0.0438
     27 CBA        27.3669   -4.6824   43.3854 C.2         1 RX4       0.1825
     28 OAH        27.0062   -5.0682   44.4925 O.2         1 RX4      -0.3966
     29 N          27.8319   -3.4417   43.2398 N.am        1 RX4      -0.2656
     30 CA         27.8957   -2.4238   44.2533 C.3         1 RX4       0.1278
     31 CB         28.4169   -1.0985   43.6380 C.3         1 RX4      -0.0244
     32 C          26.5950   -2.2227   44.8826 C.2         1 RX4       0.1989
     33 O          26.4128   -2.5554   46.0439 O.2         1 RX4      -0.3947
     34 NAD        25.5660   -1.7328   44.2273 N.am        1 RX4      -0.2990
     35 H1         30.4233   -5.4233   41.6148 H           1 RX4       0.0557
     36 H2         30.7862   -3.4329   42.8880 H           1 RX4       0.0599
     37 H3         31.7545   -3.5499   45.1181 H           1 RX4       0.0559
     38 H4         32.3389   -5.7123   46.0660 H           1 RX4       0.0599
     39 H5         31.9478   -7.7333   44.8117 H           1 RX4       0.0557
     40 H6         31.1155   -8.9087   42.9427 H           1 RX4       0.0465
     41 H7         31.5606   -8.0574   41.4831 H           1 RX4       0.0465
     42 H8         29.3936   -9.3596   41.5500 H           1 RX4       0.0788
     43 H9         29.9912   -7.0699   40.1974 H           1 RX4       0.1872
     44 H10        29.3368   -6.7236   38.1642 H           1 RX4       0.0819
     45 H11        26.3835   -6.5830   38.4978 H           1 RX4       0.0478
     46 H12        26.8218   -6.7750   36.8116 H           1 RX4       0.0478
     47 H13        29.4629   -8.2108   36.6121 H           1 RX4       0.1884
     48 H14        28.0288  -11.4113   36.0475 H           1 RX4       0.0467
     49 H15        29.6409  -10.7186   36.2866 H           1 RX4       0.0467
     50 H16        28.5523  -10.0426   35.0572 H           1 RX4       0.0467
     51 H17        26.1165   -7.1201   43.2494 H           1 RX4       0.0493
     52 H18        26.4310   -7.4792   41.5676 H           1 RX4       0.0493
     53 H19        28.0680   -5.4420   41.5833 H           1 RX4       0.0551
     54 H20        26.2156   -3.8770   41.0709 H           1 RX4       0.0257
     55 H21        25.0624   -4.9317   41.9330 H           1 RX4       0.0257
     56 H22        25.8503   -5.4914   40.4406 H           1 RX4       0.0257
     57 H23        28.1370   -3.1831   42.3567 H           1 RX4       0.1883
     58 H24        28.6290   -2.7458   44.9994 H           1 RX4       0.0797
     59 H25        28.4967   -0.3237   44.4067 H           1 RX4       0.0277
     60 H26        27.7515   -0.7417   42.8509 H           1 RX4       0.0277
     61 H27        29.4074   -1.2545   43.2092 H           1 RX4       0.0277
     62 H28        24.6952   -1.6769   44.6547 H           1 RX4       0.1815
     63 H29        25.6669   -1.4442   43.3072 H           1 RX4       0.1815
@<TRIPOS>BOND
     1     1     2  ar
     2     1     6  ar
     3     2     3  ar
     4     3     4  ar
     5     4     5  ar
     6     5     6  ar
     7     6     7   1
     8     7     8   1
     9     8     9   1
    10     8    21   1
    11     9    10  am
    12    10    11   2
    13    10    12   1
    14    12    13   1
    15    12    17   1
    16    13    14   1
    17    14    15  ar
    18    14    16  ar
    19    17    18  am
    20    18    19   1
    21    18    20   2
    22    21    22  ar
    23    21    23  ar
    24    21    24   1
    25    24    25   1
    26    25    26   1
    27    25    27   1
    28    27    28   2
    29    27    29  am
    30    29    30   1
    31    30    31   1
    32    30    32   1
    33    32    33   2
    34    32    34  am
    35     1    35   1
    36     2    36   1
    37     3    37   1
    38     4    38   1
    39     5    39   1
    40     7    40   1
    41     7    41   1
    42     8    42   1
    43     9    43   1
    44    12    44   1
    45    13    45   1
    46    13    46   1
    47    17    47   1
    48    19    48   1
    49    19    49   1
    50    19    50   1
    51    24    51   1
    52    24    52   1
    53    25    53   1
    54    26    54   1
    55    26    55   1
    56    26    56   1
    57    29    57   1
    58    30    58   1
    59    31    59   1
    60    31    60   1
    61    31    61   1
    62    34    62   1
    63    34    63   1
@<TRIPOS>SUBSTRUCTURE
     1  RX4      1

