@<TRIPOS>MOLECULE
2x97_ligand_052
    63    63
SMALL
GAST_HUCK
****
This file was generated by PARSER (from files_GN.cpp)

@<TRIPOS>ATOM
      1 CAP        27.1392  -10.4412   43.5085 C.ar        1 RX4      -0.0602
      2 CAN        26.1696  -10.5269   44.5320 C.ar        1 RX4      -0.0686
      3 CAM        25.5942   -9.3541   45.0597 C.ar        1 RX4      -0.0687
      4 CAO        25.9826   -8.1025   44.5541 C.ar        1 RX4      -0.0686
      5 CAQ        26.9563   -8.0215   43.5463 C.ar        1 RX4      -0.0602
      6 CBC        27.5523   -9.1832   43.0015 C.ar        1 RX4      -0.0393
      7 CAS        28.6529   -9.0656   41.9986 C.3         1 RX4       0.0205
      8 CBG        28.2305   -8.5980   40.5529 C.3         1 RX4       0.1158
      9 NAW        28.7178   -9.5822   39.5995 N.am        1 RX4      -0.2644
     10 CBB        28.1574  -10.0101   38.4684 C.2         1 RX4       0.2049
     11 OAI        27.0256   -9.6386   38.1797 O.2         1 RX4      -0.3944
     12 CBF        28.7881  -11.0689   37.6647 C.3         1 RX4       0.1421
     13 CAR        30.3385  -11.2498   37.8872 C.3         1 RX4       0.0406
     14 CAZ        30.7638  -12.3678   38.7639 C.2         1 RX4       0.0393
     15 OAK        32.0629  -12.7415   38.7623 O.co2       1 RX4      -0.5688
     16 OAG        29.8949  -13.1844   39.4032 O.co2       1 RX4      -0.5688
     17 NAU        28.5772  -10.8541   36.2496 N.am        1 RX4      -0.2643
     18 CAX        27.7821  -11.5448   35.4396 C.2         1 RX4       0.1752
     19 CAA        27.7742  -11.2304   34.0306 C.3         1 RX4       0.0258
     20 OAE        27.0510  -12.4391   35.8467 O.2         1 RX4      -0.3972
     21 P1         28.7617   -7.0550   40.1191 P.3         1 RX4       0.0153
     22 O4         27.8765   -6.6793   39.0354 O.co2       1 RX4      -0.6174
     23 O3         30.0357   -7.1137   39.4329 O.co2       1 RX4      -0.6174
     24 CAT        28.6569   -5.7439   41.1645 C.3         1 RX4       0.0350
     25 CBD        29.7245   -5.6333   42.3132 C.3         1 RX4       0.0618
     26 CAB        31.1043   -5.1011   41.8201 C.3         1 RX4      -0.0438
     27 CBA        29.2587   -4.7783   43.4065 C.2         1 RX4       0.1825
     28 OAH        29.0989   -5.2746   44.5192 O.2         1 RX4      -0.3966
     29 N          29.0717   -3.4735   43.2140 N.am        1 RX4      -0.2656
     30 CA         28.7045   -2.5010   44.2003 C.3         1 RX4       0.1278
     31 CB         28.6487   -1.0769   43.5884 C.3         1 RX4      -0.0244
     32 C          27.4269   -2.8089   44.8281 C.2         1 RX4       0.1989
     33 O          27.2306   -2.5554   46.0097 O.2         1 RX4      -0.3947
     34 NAD        26.4340   -3.2848   44.1129 N.am        1 RX4      -0.2990
     35 H1         27.5435  -11.3069   43.1470 H           1 RX4       0.0557
     36 H2         25.8878  -11.4367   44.9009 H           1 RX4       0.0599
     37 H3         24.8951   -9.4143   45.8044 H           1 RX4       0.0559
     38 H4         25.5732   -7.2451   44.9356 H           1 RX4       0.0599
     39 H5         27.2567   -7.0990   43.2419 H           1 RX4       0.0557
     40 H6         29.1525  -10.0390   41.9435 H           1 RX4       0.0465
     41 H7         29.4115   -8.3985   42.4191 H           1 RX4       0.0465
     42 H8         27.1379   -8.5906   40.5016 H           1 RX4       0.0788
     43 H9         29.5782   -9.9802   39.8112 H           1 RX4       0.1872
     44 H10        28.2778  -11.9870   37.9630 H           1 RX4       0.0819
     45 H11        30.7732  -10.3267   38.2859 H           1 RX4       0.0478
     46 H12        30.8366  -11.4287   36.9280 H           1 RX4       0.0478
     47 H13        29.1161  -10.1604   35.8386 H           1 RX4       0.1884
     48 H14        27.0786  -11.8692   33.4801 H           1 RX4       0.0467
     49 H15        28.7726  -11.3746   33.6148 H           1 RX4       0.0467
     50 H16        27.4724  -10.1926   33.8864 H           1 RX4       0.0467
     51 H17        27.6568   -5.7778   41.5928 H           1 RX4       0.0493
     52 H18        28.7010   -4.8238   40.5760 H           1 RX4       0.0493
     53 H19        29.8919   -6.6432   42.7179 H           1 RX4       0.0551
     54 H20        31.8103   -5.0468   42.6544 H           1 RX4       0.0257
     55 H21        31.0055   -4.1025   41.3822 H           1 RX4       0.0257
     56 H22        31.5299   -5.7647   41.0702 H           1 RX4       0.0257
     57 H23        29.2401   -3.1428   42.3221 H           1 RX4       0.1883
     58 H24        29.5010   -2.5019   44.9487 H           1 RX4       0.0797
     59 H25        28.4842   -0.3359   44.3767 H           1 RX4       0.0277
     60 H26        27.8383   -0.9938   42.8574 H           1 RX4       0.0277
     61 H27        29.5895   -0.8392   43.0874 H           1 RX4       0.0277
     62 H28        25.5748   -3.4685   44.5212 H           1 RX4       0.1815
     63 H29        26.5593   -3.4570   43.1628 H           1 RX4       0.1815
@<TRIPOS>BOND
     1     1     2  ar
     2     1     6  ar
     3     2     3  ar
     4     3     4  ar
     5     4     5  ar
     6     5     6  ar
     7     6     7   1
     8     7     8   1
     9     8     9   1
    10     8    21   1
    11     9    10  am
    12    10    11   2
    13    10    12   1
    14    12    13   1
    15    12    17   1
    16    13    14   1
    17    14    15  ar
    18    14    16  ar
    19    17    18  am
    20    18    19   1
    21    18    20   2
    22    21    22  ar
    23    21    23  ar
    24    21    24   1
    25    24    25   1
    26    25    26   1
    27    25    27   1
    28    27    28   2
    29    27    29  am
    30    29    30   1
    31    30    31   1
    32    30    32   1
    33    32    33   2
    34    32    34  am
    35     1    35   1
    36     2    36   1
    37     3    37   1
    38     4    38   1
    39     5    39   1
    40     7    40   1
    41     7    41   1
    42     8    42   1
    43     9    43   1
    44    12    44   1
    45    13    45   1
    46    13    46   1
    47    17    47   1
    48    19    48   1
    49    19    49   1
    50    19    50   1
    51    24    51   1
    52    24    52   1
    53    25    53   1
    54    26    54   1
    55    26    55   1
    56    26    56   1
    57    29    57   1
    58    30    58   1
    59    31    59   1
    60    31    60   1
    61    31    61   1
    62    34    62   1
    63    34    63   1
@<TRIPOS>SUBSTRUCTURE
     1  RX4      1

