@<TRIPOS>MOLECULE
2x97_ligand_009
    63    63
SMALL
GAST_HUCK
****
This file was generated by PARSER (from files_GN.cpp)

@<TRIPOS>ATOM
      1 CAP        30.3046   -5.8006   42.3469 C.ar        1 RX4      -0.0602
      2 CAN        31.0792   -6.5059   43.2904 C.ar        1 RX4      -0.0686
      3 CAM        30.8284   -7.8690   43.5378 C.ar        1 RX4      -0.0687
      4 CAO        29.8155   -8.5322   42.8304 C.ar        1 RX4      -0.0686
      5 CAQ        29.0415   -7.8309   41.8872 C.ar        1 RX4      -0.0602
      6 CBC        29.2538   -6.4506   41.6518 C.ar        1 RX4      -0.0393
      7 CAS        28.4271   -5.7080   40.6541 C.3         1 RX4       0.0205
      8 CBG        26.8782   -5.7766   40.7999 C.3         1 RX4       0.1158
      9 NAW        26.3237   -5.1950   39.6122 N.am        1 RX4      -0.2644
     10 CBB        25.2956   -5.6614   38.9115 C.2         1 RX4       0.2049
     11 OAI        24.6681   -6.6266   39.3304 O.2         1 RX4      -0.3944
     12 CBF        24.7845   -4.9233   37.7488 C.3         1 RX4       0.1421
     13 CAR        23.6451   -5.6360   36.9579 C.3         1 RX4       0.0406
     14 CAZ        24.0566   -6.8578   36.2375 C.2         1 RX4       0.0393
     15 OAK        24.9119   -7.7472   36.7961 O.co2       1 RX4      -0.5688
     16 OAG        23.3301   -7.2901   35.1834 O.co2       1 RX4      -0.5688
     17 NAU        25.7877   -4.5496   36.7882 N.am        1 RX4      -0.2643
     18 CAX        26.9033   -3.8681   37.0424 C.2         1 RX4       0.1752
     19 CAA        27.8339   -3.6374   35.9483 C.3         1 RX4       0.0258
     20 OAE        27.1339   -3.4749   38.1936 O.2         1 RX4      -0.3972
     21 P1         26.2307   -5.1109   42.2048 P.3         1 RX4       0.0153
     22 O4         26.4330   -6.0146   43.3153 O.co2       1 RX4      -0.6174
     23 O3         24.7987   -5.2215   42.0397 O.co2       1 RX4      -0.6174
     24 CAT        26.5363   -3.5020   42.5618 C.3         1 RX4       0.0350
     25 CBD        27.2719   -3.1589   43.9202 C.3         1 RX4       0.0618
     26 CAB        28.7248   -2.6538   43.6714 C.3         1 RX4      -0.0438
     27 CBA        26.5684   -2.1967   44.7874 C.2         1 RX4       0.1825
     28 OAH        26.5793   -2.3998   45.9972 O.2         1 RX4      -0.3966
     29 N          26.0559   -1.0792   44.2763 N.am        1 RX4      -0.2656
     30 CA         25.4635    0.0834   44.8955 C.3         1 RX4       0.1278
     31 CB         25.3011    0.0845   46.4442 C.3         1 RX4      -0.0244
     32 C          26.1679    1.2599   44.3896 C.2         1 RX4       0.1989
     33 O          26.8266    1.9970   45.1090 O.2         1 RX4      -0.3947
     34 NAD        26.1119    1.5740   43.1166 N.am        1 RX4      -0.2990
     35 H1         30.5212   -4.8171   42.1530 H           1 RX4       0.0557
     36 H2         31.8371   -6.0362   43.7903 H           1 RX4       0.0599
     37 H3         31.4036   -8.3818   44.2139 H           1 RX4       0.0559
     38 H4         29.6577   -9.5294   42.9830 H           1 RX4       0.0599
     39 H5         28.3311   -8.3404   41.3601 H           1 RX4       0.0557
     40 H6         28.6773   -6.1197   39.6695 H           1 RX4       0.0465
     41 H7         28.7005   -4.6523   40.6399 H           1 RX4       0.0465
     42 H8         26.6221   -6.8401   40.8344 H           1 RX4       0.0788
     43 H9         26.8587   -4.4847   39.1771 H           1 RX4       0.1872
     44 H10        24.3362   -4.0079   38.1496 H           1 RX4       0.0819
     45 H11        23.2573   -4.9237   36.2228 H           1 RX4       0.0478
     46 H12        22.8229   -5.8827   37.6309 H           1 RX4       0.0478
     47 H13        25.6338   -4.7720   35.8507 H           1 RX4       0.1884
     48 H14        28.7368   -3.0980   36.2717 H           1 RX4       0.0467
     49 H15        27.3756   -3.0652   35.1244 H           1 RX4       0.0467
     50 H16        28.1487   -4.6072   35.5420 H           1 RX4       0.0467
     51 H17        25.5877   -2.9531   42.5241 H           1 RX4       0.0493
     52 H18        27.1085   -3.1200   41.7163 H           1 RX4       0.0493
     53 H19        27.4068   -4.0851   44.4861 H           1 RX4       0.0551
     54 H20        29.2490   -2.5251   44.6205 H           1 RX4       0.0257
     55 H21        28.7117   -1.6861   43.1582 H           1 RX4       0.0257
     56 H22        29.2905   -3.3752   43.0710 H           1 RX4       0.0257
     57 H23        26.0928   -1.0403   43.3075 H           1 RX4       0.1883
     58 H24        24.4475    0.1298   44.5021 H           1 RX4       0.0797
     59 H25        24.8223    1.0065   46.7786 H           1 RX4       0.0277
     60 H26        26.2712   -0.0006   46.9371 H           1 RX4       0.0277
     61 H27        24.6690   -0.7500   46.7470 H           1 RX4       0.0277
     62 H28        26.5766    2.3561   42.7829 H           1 RX4       0.1815
     63 H29        25.6166    1.0113   42.5056 H           1 RX4       0.1815
@<TRIPOS>BOND
     1     1     2  ar
     2     1     6  ar
     3     2     3  ar
     4     3     4  ar
     5     4     5  ar
     6     5     6  ar
     7     6     7   1
     8     7     8   1
     9     8     9   1
    10     8    21   1
    11     9    10  am
    12    10    11   2
    13    10    12   1
    14    12    13   1
    15    12    17   1
    16    13    14   1
    17    14    15  ar
    18    14    16  ar
    19    17    18  am
    20    18    19   1
    21    18    20   2
    22    21    22  ar
    23    21    23  ar
    24    21    24   1
    25    24    25   1
    26    25    26   1
    27    25    27   1
    28    27    28   2
    29    27    29  am
    30    29    30   1
    31    30    31   1
    32    30    32   1
    33    32    33   2
    34    32    34  am
    35     1    35   1
    36     2    36   1
    37     3    37   1
    38     4    38   1
    39     5    39   1
    40     7    40   1
    41     7    41   1
    42     8    42   1
    43     9    43   1
    44    12    44   1
    45    13    45   1
    46    13    46   1
    47    17    47   1
    48    19    48   1
    49    19    49   1
    50    19    50   1
    51    24    51   1
    52    24    52   1
    53    25    53   1
    54    26    54   1
    55    26    55   1
    56    26    56   1
    57    29    57   1
    58    30    58   1
    59    31    59   1
    60    31    60   1
    61    31    61   1
    62    34    62   1
    63    34    63   1
@<TRIPOS>SUBSTRUCTURE
     1  RX4      1

