@<TRIPOS>MOLECULE
2x97_ligand_035
    63    63
SMALL
GAST_HUCK
****
This file was generated by PARSER (from files_GN.cpp)

@<TRIPOS>ATOM
      1 CAP        28.7661  -11.2812   37.0203 C.ar        1 RX4      -0.0602
      2 CAN        28.2305  -12.5524   37.2843 C.ar        1 RX4      -0.0686
      3 CAM        28.8361  -13.3856   38.2395 C.ar        1 RX4      -0.0687
      4 CAO        29.9698  -12.9396   38.9425 C.ar        1 RX4      -0.0686
      5 CAQ        30.5138  -11.6718   38.6688 C.ar        1 RX4      -0.0602
      6 CBC        29.9191  -10.8196   37.7040 C.ar        1 RX4      -0.0393
      7 CAS        30.5468   -9.5159   37.3483 C.3         1 RX4       0.0205
      8 CBG        30.1617   -8.2821   38.2292 C.3         1 RX4       0.1158
      9 NAW        30.6267   -7.1088   37.5374 N.am        1 RX4      -0.2644
     10 CBB        29.8886   -6.1409   37.0048 C.2         1 RX4       0.2049
     11 OAI        28.6876   -6.3446   36.8051 O.2         1 RX4      -0.3944
     12 CBF        30.5050   -4.9025   36.5258 C.3         1 RX4       0.1421
     13 CAR        31.5303   -4.3029   37.5483 C.3         1 RX4       0.0406
     14 CAZ        32.2949   -3.1222   37.0951 C.2         1 RX4       0.0393
     15 OAK        32.2213   -2.6463   35.8294 O.co2       1 RX4      -0.5688
     16 OAG        33.1470   -2.5155   37.9560 O.co2       1 RX4      -0.5688
     17 NAU        29.5227   -3.8730   36.2691 N.am        1 RX4      -0.2643
     18 CAX        28.7901   -3.7213   35.1734 C.2         1 RX4       0.1752
     19 CAA        27.7845   -2.6828   35.1518 C.3         1 RX4       0.0258
     20 OAE        28.9232   -4.4552   34.2025 O.2         1 RX4      -0.3972
     21 P1         30.7989   -8.2423   39.7843 P.3         1 RX4       0.0153
     22 O4         32.1434   -8.7690   39.7229 O.co2       1 RX4      -0.6174
     23 O3         30.0924   -9.2105   40.5949 O.co2       1 RX4      -0.6174
     24 CAT        30.8780   -6.7583   40.5662 C.3         1 RX4       0.0350
     25 CBD        29.9211   -6.5083   41.7947 C.3         1 RX4       0.0618
     26 CAB        30.7270   -6.1840   43.0881 C.3         1 RX4      -0.0438
     27 CBA        28.8819   -5.5189   41.4976 C.2         1 RX4       0.1825
     28 OAH        28.5723   -4.6576   42.3195 O.2         1 RX4      -0.3966
     29 N          28.2358   -5.5763   40.3373 N.am        1 RX4      -0.2656
     30 CA         27.1272   -4.7488   39.9462 C.3         1 RX4       0.1278
     31 CB         26.7118   -5.0545   38.4826 C.3         1 RX4      -0.0244
     32 C          26.0451   -4.9348   40.8919 C.2         1 RX4       0.1989
     33 O          25.1423   -5.7459   40.6867 O.2         1 RX4      -0.3947
     34 NAD        26.0162   -4.2749   42.0329 N.am        1 RX4      -0.2990
     35 H1         28.3176  -10.6964   36.3090 H           1 RX4       0.0557
     36 H2         27.4018  -12.8751   36.7768 H           1 RX4       0.0599
     37 H3         28.4453  -14.3120   38.4366 H           1 RX4       0.0559
     38 H4         30.4066  -13.5428   39.6443 H           1 RX4       0.0599
     39 H5         31.3520  -11.3791   39.1681 H           1 RX4       0.0557
     40 H6         30.2547   -9.2837   36.3161 H           1 RX4       0.0465
     41 H7         31.6340   -9.6336   37.3156 H           1 RX4       0.0465
     42 H8         29.0721   -8.2668   38.3352 H           1 RX4       0.0788
     43 H9         31.5936   -6.9933   37.5008 H           1 RX4       0.1872
     44 H10        31.0500   -5.1305   35.6035 H           1 RX4       0.0819
     45 H11        32.2731   -5.0540   37.8166 H           1 RX4       0.0478
     46 H12        31.0023   -4.0205   38.4594 H           1 RX4       0.0478
     47 H13        29.3757   -3.2217   36.9800 H           1 RX4       0.1884
     48 H14        27.2729   -2.6350   34.1872 H           1 RX4       0.0467
     49 H15        28.2440   -1.7120   35.3469 H           1 RX4       0.0467
     50 H16        27.0418   -2.8846   35.9253 H           1 RX4       0.0467
     51 H17        30.7351   -5.9786   39.8210 H           1 RX4       0.0493
     52 H18        31.9110   -6.6264   40.8874 H           1 RX4       0.0493
     53 H19        29.3669   -7.4183   42.0399 H           1 RX4       0.0551
     54 H20        30.0524   -6.0768   43.9425 H           1 RX4       0.0257
     55 H21        31.2911   -5.2589   42.9731 H           1 RX4       0.0257
     56 H22        31.4226   -6.9927   43.3086 H           1 RX4       0.0257
     57 H23        28.5184   -6.2630   39.7083 H           1 RX4       0.1883
     58 H24        27.4434   -3.6983   39.9594 H           1 RX4       0.0797
     59 H25        25.7960   -4.5112   38.2171 H           1 RX4       0.0277
     60 H26        26.5372   -6.1248   38.3402 H           1 RX4       0.0277
     61 H27        27.5150   -4.7267   37.8195 H           1 RX4       0.0277
     62 H28        25.3014   -4.4246   42.6731 H           1 RX4       0.1815
     63 H29        26.7262   -3.6412   42.2406 H           1 RX4       0.1815
@<TRIPOS>BOND
     1     1     2  ar
     2     1     6  ar
     3     2     3  ar
     4     3     4  ar
     5     4     5  ar
     6     5     6  ar
     7     6     7   1
     8     7     8   1
     9     8     9   1
    10     8    21   1
    11     9    10  am
    12    10    11   2
    13    10    12   1
    14    12    13   1
    15    12    17   1
    16    13    14   1
    17    14    15  ar
    18    14    16  ar
    19    17    18  am
    20    18    19   1
    21    18    20   2
    22    21    22  ar
    23    21    23  ar
    24    21    24   1
    25    24    25   1
    26    25    26   1
    27    25    27   1
    28    27    28   2
    29    27    29  am
    30    29    30   1
    31    30    31   1
    32    30    32   1
    33    32    33   2
    34    32    34  am
    35     1    35   1
    36     2    36   1
    37     3    37   1
    38     4    38   1
    39     5    39   1
    40     7    40   1
    41     7    41   1
    42     8    42   1
    43     9    43   1
    44    12    44   1
    45    13    45   1
    46    13    46   1
    47    17    47   1
    48    19    48   1
    49    19    49   1
    50    19    50   1
    51    24    51   1
    52    24    52   1
    53    25    53   1
    54    26    54   1
    55    26    55   1
    56    26    56   1
    57    29    57   1
    58    30    58   1
    59    31    59   1
    60    31    60   1
    61    31    61   1
    62    34    62   1
    63    34    63   1
@<TRIPOS>SUBSTRUCTURE
     1  RX4      1

