@<TRIPOS>MOLECULE
2x97_ligand_034
    63    63
SMALL
GAST_HUCK
****
This file was generated by PARSER (from files_GN.cpp)

@<TRIPOS>ATOM
      1 CAP        31.5427   -7.4860   45.1409 C.ar        1 RX4      -0.0602
      2 CAN        31.4224   -7.5679   46.5401 C.ar        1 RX4      -0.0686
      3 CAM        30.3146   -8.2130   47.1132 C.ar        1 RX4      -0.0687
      4 CAO        29.3335   -8.7894   46.2886 C.ar        1 RX4      -0.0686
      5 CAQ        29.4451   -8.6869   44.8882 C.ar        1 RX4      -0.0602
      6 CBC        30.5406   -8.0191   44.2989 C.ar        1 RX4      -0.0393
      7 CAS        30.6185   -7.8719   42.8163 C.3         1 RX4       0.0205
      8 CBG        29.8276   -6.6596   42.2237 C.3         1 RX4       0.1158
      9 NAW        29.5698   -6.8795   40.8230 N.am        1 RX4      -0.2644
     10 CBB        30.4264   -6.8367   39.8065 C.2         1 RX4       0.2049
     11 OAI        31.5978   -6.5428   39.9961 O.2         1 RX4      -0.3944
     12 CBF        30.0079   -7.2586   38.4697 C.3         1 RX4       0.1421
     13 CAR        30.7782   -8.4966   37.9329 C.3         1 RX4       0.0406
     14 CAZ        31.0190   -9.5225   38.9631 C.2         1 RX4       0.0393
     15 OAK        31.8185   -9.2351   40.0229 O.co2       1 RX4      -0.5688
     16 OAG        30.5092  -10.7676   38.8501 O.co2       1 RX4      -0.5688
     17 NAU        29.9890   -6.1959   37.4915 N.am        1 RX4      -0.2643
     18 CAX        30.7821   -5.1363   37.3682 C.2         1 RX4       0.1752
     19 CAA        30.6180   -4.2728   36.2246 C.3         1 RX4       0.0258
     20 OAE        31.6420   -4.8549   38.1994 O.2         1 RX4      -0.3972
     21 P1         30.4763   -5.1341   42.5246 P.3         1 RX4       0.0153
     22 O4         30.0816   -4.2429   41.4593 O.co2       1 RX4      -0.6174
     23 O3         31.9120   -5.1482   42.3928 O.co2       1 RX4      -0.6174
     24 CAT        30.0975   -4.3363   43.9457 C.3         1 RX4       0.0350
     25 CBD        28.5844   -4.3633   44.3752 C.3         1 RX4       0.0618
     26 CAB        28.2459   -5.5039   45.3864 C.3         1 RX4      -0.0438
     27 CBA        28.1841   -3.0645   44.9146 C.2         1 RX4       0.1825
     28 OAH        27.8917   -2.9507   46.1115 O.2         1 RX4      -0.3966
     29 N          28.0691   -2.0147   44.1052 N.am        1 RX4      -0.2656
     30 CA         27.5154   -0.7259   44.4470 C.3         1 RX4       0.1278
     31 CB         27.4959    0.1774   43.1787 C.3         1 RX4      -0.0244
     32 C          26.2139   -0.8802   45.1084 C.2         1 RX4       0.1989
     33 O          26.1575   -1.4116   46.2144 O.2         1 RX4      -0.3947
     34 NAD        25.0609   -0.6227   44.5294 N.am        1 RX4      -0.2990
     35 H1         32.3510   -6.9996   44.7440 H           1 RX4       0.0557
     36 H2         32.1360   -7.1467   47.1442 H           1 RX4       0.0599
     37 H3         30.2217   -8.2724   48.1316 H           1 RX4       0.0559
     38 H4         28.5299   -9.2654   46.7086 H           1 RX4       0.0599
     39 H5         28.7062   -9.0908   44.3078 H           1 RX4       0.0557
     40 H6         30.2409   -8.7892   42.3636 H           1 RX4       0.0465
     41 H7         31.6626   -7.8107   42.5115 H           1 RX4       0.0465
     42 H8         28.8390   -6.6720   42.6709 H           1 RX4       0.0788
     43 H9         28.6560   -7.1332   40.5985 H           1 RX4       0.1872
     44 H10        28.9621   -7.5780   38.5245 H           1 RX4       0.0819
     45 H11        31.7413   -8.2006   37.4942 H           1 RX4       0.0478
     46 H12        30.1898   -8.9589   37.1274 H           1 RX4       0.0478
     47 H13        29.3107   -6.2849   36.7978 H           1 RX4       0.1884
     48 H14        31.2957   -3.4183   36.2712 H           1 RX4       0.0467
     49 H15        29.5930   -3.9031   36.1838 H           1 RX4       0.0467
     50 H16        30.8354   -4.8379   35.3164 H           1 RX4       0.0467
     51 H17        30.4337   -3.2989   43.8043 H           1 RX4       0.0493
     52 H18        30.7122   -4.7332   44.7576 H           1 RX4       0.0493
     53 H19        27.9569   -4.5437   43.4967 H           1 RX4       0.0551
     54 H20        27.1969   -5.4435   45.6921 H           1 RX4       0.0257
     55 H21        28.8754   -5.4297   46.2805 H           1 RX4       0.0257
     56 H22        28.4003   -6.4784   44.9303 H           1 RX4       0.0257
     57 H23        28.3950   -2.1137   43.1894 H           1 RX4       0.1883
     58 H24        28.1896   -0.2188   45.1440 H           1 RX4       0.0797
     59 H25        27.0868    1.1654   43.4126 H           1 RX4       0.0277
     60 H26        26.8971   -0.2664   42.3819 H           1 RX4       0.0277
     61 H27        28.5119    0.3140   42.7961 H           1 RX4       0.0277
     62 H28        24.2355   -0.8765   44.9755 H           1 RX4       0.1815
     63 H29        25.0390   -0.2720   43.6271 H           1 RX4       0.1815
@<TRIPOS>BOND
     1     1     2  ar
     2     1     6  ar
     3     2     3  ar
     4     3     4  ar
     5     4     5  ar
     6     5     6  ar
     7     6     7   1
     8     7     8   1
     9     8     9   1
    10     8    21   1
    11     9    10  am
    12    10    11   2
    13    10    12   1
    14    12    13   1
    15    12    17   1
    16    13    14   1
    17    14    15  ar
    18    14    16  ar
    19    17    18  am
    20    18    19   1
    21    18    20   2
    22    21    22  ar
    23    21    23  ar
    24    21    24   1
    25    24    25   1
    26    25    26   1
    27    25    27   1
    28    27    28   2
    29    27    29  am
    30    29    30   1
    31    30    31   1
    32    30    32   1
    33    32    33   2
    34    32    34  am
    35     1    35   1
    36     2    36   1
    37     3    37   1
    38     4    38   1
    39     5    39   1
    40     7    40   1
    41     7    41   1
    42     8    42   1
    43     9    43   1
    44    12    44   1
    45    13    45   1
    46    13    46   1
    47    17    47   1
    48    19    48   1
    49    19    49   1
    50    19    50   1
    51    24    51   1
    52    24    52   1
    53    25    53   1
    54    26    54   1
    55    26    55   1
    56    26    56   1
    57    29    57   1
    58    30    58   1
    59    31    59   1
    60    31    60   1
    61    31    61   1
    62    34    62   1
    63    34    63   1
@<TRIPOS>SUBSTRUCTURE
     1  RX4      1

