@<TRIPOS>MOLECULE
2x97_ligand_013
    63    63
SMALL
GAST_HUCK
****
This file was generated by PARSER (from files_GN.cpp)

@<TRIPOS>ATOM
      1 CAP        28.3336   -5.6160   35.4585 C.ar        1 RX4      -0.0602
      2 CAN        29.0391   -4.8847   34.4844 C.ar        1 RX4      -0.0686
      3 CAM        28.5711   -3.6235   34.0763 C.ar        1 RX4      -0.0687
      4 CAO        27.3934   -3.1000   34.6381 C.ar        1 RX4      -0.0686
      5 CAQ        26.6911   -3.8341   35.6121 C.ar        1 RX4      -0.0602
      6 CBC        27.1473   -5.1061   36.0362 C.ar        1 RX4      -0.0393
      7 CAS        26.4248   -5.8642   37.1044 C.3         1 RX4       0.0205
      8 CBG        27.0648   -5.6661   38.5135 C.3         1 RX4       0.1158
      9 NAW        28.3940   -6.2232   38.5008 N.am        1 RX4      -0.2644
     10 CBB        29.4253   -5.8248   39.2375 C.2         1 RX4       0.2049
     11 OAI        29.2605   -4.9524   40.0899 O.2         1 RX4      -0.3944
     12 CBF        30.7744   -6.3424   39.0187 C.3         1 RX4       0.1421
     13 CAR        31.5673   -6.7090   40.3244 C.3         1 RX4       0.0406
     14 CAZ        31.5080   -8.1377   40.6843 C.2         1 RX4       0.0393
     15 OAK        32.3036   -9.0098   40.0276 O.co2       1 RX4      -0.5688
     16 OAG        30.9666   -8.5372   41.8560 O.co2       1 RX4      -0.5688
     17 NAU        31.5037   -5.4318   38.1737 N.am        1 RX4      -0.2643
     18 CAX        31.8628   -4.1779   38.4202 C.2         1 RX4       0.1752
     19 CAA        32.5846   -3.4297   37.4232 C.3         1 RX4       0.0258
     20 OAE        31.6320   -3.6416   39.4972 O.2         1 RX4      -0.3972
     21 P1         26.2035   -6.2919   39.8161 P.3         1 RX4       0.0153
     22 O4         26.6896   -7.6144   40.1392 O.co2       1 RX4      -0.6174
     23 O3         24.8278   -6.6084   39.4258 O.co2       1 RX4      -0.6174
     24 CAT        26.1956   -5.2809   41.1554 C.3         1 RX4       0.0350
     25 CBD        26.9387   -5.7109   42.4698 C.3         1 RX4       0.0618
     26 CAB        28.4522   -6.0634   42.3296 C.3         1 RX4      -0.0438
     27 CBA        26.8244   -4.6751   43.5011 C.2         1 RX4       0.1825
     28 OAH        26.2770   -4.9620   44.5602 O.2         1 RX4      -0.3966
     29 N          27.3777   -3.4747   43.3299 N.am        1 RX4      -0.2656
     30 CA         27.5336   -2.4407   44.3186 C.3         1 RX4       0.1278
     31 CB         28.2503   -1.2214   43.6830 C.3         1 RX4      -0.0244
     32 C          26.2730   -2.0478   44.9357 C.2         1 RX4       0.1989
     33 O          26.0637   -2.2803   46.1159 O.2         1 RX4      -0.3947
     34 NAD        25.3052   -1.4778   44.2545 N.am        1 RX4      -0.2990
     35 H1         28.6982   -6.5238   35.7538 H           1 RX4       0.0557
     36 H2         29.8977   -5.2660   34.0781 H           1 RX4       0.0599
     37 H3         29.0897   -3.0862   33.3759 H           1 RX4       0.0559
     38 H4         27.0523   -2.1809   34.3433 H           1 RX4       0.0599
     39 H5         25.8448   -3.4306   36.0178 H           1 RX4       0.0557
     40 H6         26.4030   -6.9293   36.8529 H           1 RX4       0.0465
     41 H7         25.3843   -5.5282   37.1216 H           1 RX4       0.0465
     42 H8         27.1227   -4.5803   38.6538 H           1 RX4       0.0788
     43 H9         28.5629   -6.9133   37.8324 H           1 RX4       0.1872
     44 H10        30.6975   -7.2562   38.4139 H           1 RX4       0.0819
     45 H11        31.2190   -6.1072   41.1673 H           1 RX4       0.0478
     46 H12        32.6247   -6.4702   40.1863 H           1 RX4       0.0478
     47 H13        31.7344   -5.7762   37.2974 H           1 RX4       0.1884
     48 H14        32.6476   -2.3733   37.6893 H           1 RX4       0.0467
     49 H15        32.0891   -3.5059   36.4532 H           1 RX4       0.0467
     50 H16        33.5993   -3.8213   37.3422 H           1 RX4       0.0467
     51 H17        25.1495   -5.1085   41.4243 H           1 RX4       0.0493
     52 H18        26.5876   -4.3118   40.8443 H           1 RX4       0.0493
     53 H19        26.4445   -6.6247   42.8224 H           1 RX4       0.0551
     54 H20        28.8343   -6.4726   43.2675 H           1 RX4       0.0257
     55 H21        29.0412   -5.1772   42.0980 H           1 RX4       0.0257
     56 H22        28.6284   -6.8073   41.5538 H           1 RX4       0.0257
     57 H23        27.7992   -3.2989   42.4695 H           1 RX4       0.1883
     58 H24        28.2027   -2.8392   45.0876 H           1 RX4       0.0797
     59 H25        28.3906   -0.4290   44.4213 H           1 RX4       0.0277
     60 H26        27.6711   -0.8212   42.8477 H           1 RX4       0.0277
     61 H27        29.2326   -1.5185   43.3111 H           1 RX4       0.0277
     62 H28        24.4407   -1.3296   44.6726 H           1 RX4       0.1815
     63 H29        25.4287   -1.2620   43.3175 H           1 RX4       0.1815
@<TRIPOS>BOND
     1     1     2  ar
     2     1     6  ar
     3     2     3  ar
     4     3     4  ar
     5     4     5  ar
     6     5     6  ar
     7     6     7   1
     8     7     8   1
     9     8     9   1
    10     8    21   1
    11     9    10  am
    12    10    11   2
    13    10    12   1
    14    12    13   1
    15    12    17   1
    16    13    14   1
    17    14    15  ar
    18    14    16  ar
    19    17    18  am
    20    18    19   1
    21    18    20   2
    22    21    22  ar
    23    21    23  ar
    24    21    24   1
    25    24    25   1
    26    25    26   1
    27    25    27   1
    28    27    28   2
    29    27    29  am
    30    29    30   1
    31    30    31   1
    32    30    32   1
    33    32    33   2
    34    32    34  am
    35     1    35   1
    36     2    36   1
    37     3    37   1
    38     4    38   1
    39     5    39   1
    40     7    40   1
    41     7    41   1
    42     8    42   1
    43     9    43   1
    44    12    44   1
    45    13    45   1
    46    13    46   1
    47    17    47   1
    48    19    48   1
    49    19    49   1
    50    19    50   1
    51    24    51   1
    52    24    52   1
    53    25    53   1
    54    26    54   1
    55    26    55   1
    56    26    56   1
    57    29    57   1
    58    30    58   1
    59    31    59   1
    60    31    60   1
    61    31    61   1
    62    34    62   1
    63    34    63   1
@<TRIPOS>SUBSTRUCTURE
     1  RX4      1

