@<TRIPOS>MOLECULE
2x97_ligand_010
    63    63
SMALL
GAST_HUCK
****
This file was generated by PARSER (from files_GN.cpp)

@<TRIPOS>ATOM
      1 CAP        31.6585   -6.8933   46.0716 C.ar        1 RX4      -0.0602
      2 CAN        31.4597   -6.5628   47.4261 C.ar        1 RX4      -0.0686
      3 CAM        30.2257   -6.8321   48.0449 C.ar        1 RX4      -0.0687
      4 CAO        29.1906   -7.4367   47.3106 C.ar        1 RX4      -0.0686
      5 CAQ        29.3868   -7.7670   45.9549 C.ar        1 RX4      -0.0602
      6 CBC        30.6226   -7.4956   45.3152 C.ar        1 RX4      -0.0393
      7 CAS        30.8208   -7.8534   43.8834 C.3         1 RX4       0.0205
      8 CBG        29.8852   -7.0950   42.8834 C.3         1 RX4       0.1158
      9 NAW        29.5871   -7.8478   41.6925 N.am        1 RX4      -0.2644
     10 CBB        30.3903   -8.5686   40.9166 C.2         1 RX4       0.2049
     11 OAI        31.5244   -8.8414   41.3016 O.2         1 RX4      -0.3944
     12 CBF        29.9289   -9.1476   39.6452 C.3         1 RX4       0.1421
     13 CAR        30.7723   -8.7480   38.3733 C.3         1 RX4       0.0406
     14 CAZ        31.6923   -7.5921   38.4968 C.2         1 RX4       0.0393
     15 OAK        31.2433   -6.3180   38.3906 O.co2       1 RX4      -0.5688
     16 OAG        32.9264   -7.7799   39.0269 O.co2       1 RX4      -0.5688
     17 NAU        28.5091   -9.0353   39.4112 N.am        1 RX4      -0.2643
     18 CAX        27.8389   -7.9714   38.9763 C.2         1 RX4       0.1752
     19 CAA        26.4137   -8.0757   38.7788 C.3         1 RX4       0.0258
     20 OAE        28.3933   -6.9060   38.7513 O.2         1 RX4      -0.3972
     21 P1         30.3155   -5.5123   42.4993 P.3         1 RX4       0.0153
     22 O4         29.8327   -5.1536   41.1903 O.co2       1 RX4      -0.6174
     23 O3         31.7464   -5.4403   42.3477 O.co2       1 RX4      -0.6174
     24 CAT        29.8407   -4.3056   43.5597 C.3         1 RX4       0.0350
     25 CBD        28.3185   -3.9374   43.6182 C.3         1 RX4       0.0618
     26 CAB        27.3894   -5.0729   44.1440 C.3         1 RX4      -0.0438
     27 CBA        28.1171   -2.7454   44.4449 C.2         1 RX4       0.1825
     28 OAH        28.0232   -2.8718   45.6636 O.2         1 RX4      -0.3966
     29 N          27.9037   -1.5715   43.8608 N.am        1 RX4      -0.2656
     30 CA         27.4037   -0.3803   44.4921 C.3         1 RX4       0.1278
     31 CB         27.2908    0.7607   43.4509 C.3         1 RX4      -0.0244
     32 C          26.1448   -0.6693   45.1713 C.2         1 RX4       0.1989
     33 O          26.1659   -1.2106   46.2686 O.2         1 RX4      -0.3947
     34 NAD        24.9767   -0.5915   44.5753 N.am        1 RX4      -0.2990
     35 H1         32.5600   -6.6791   45.6395 H           1 RX4       0.0557
     36 H2         32.2175   -6.1379   47.9655 H           1 RX4       0.0599
     37 H3         30.0837   -6.5976   49.0310 H           1 RX4       0.0559
     38 H4         28.2951   -7.6447   47.7606 H           1 RX4       0.0599
     39 H5         28.6252   -8.2138   45.4384 H           1 RX4       0.0557
     40 H6         30.6496   -8.9293   43.7827 H           1 RX4       0.0465
     41 H7         31.8641   -7.6891   43.6001 H           1 RX4       0.0465
     42 H8         28.9170   -7.0336   43.3618 H           1 RX4       0.0788
     43 H9         28.6705   -7.7712   41.3797 H           1 RX4       0.1872
     44 H10        30.0728  -10.2233   39.7692 H           1 RX4       0.0819
     45 H11        30.1129   -8.5519   37.5219 H           1 RX4       0.0478
     46 H12        31.3805   -9.6116   38.0869 H           1 RX4       0.0478
     47 H13        27.9842   -9.8371   39.5939 H           1 RX4       0.1884
     48 H14        25.9874   -7.1349   38.4272 H           1 RX4       0.0467
     49 H15        25.9312   -8.3394   39.7257 H           1 RX4       0.0467
     50 H16        26.2061   -8.8510   38.0376 H           1 RX4       0.0467
     51 H17        30.3852   -3.4057   43.2520 H           1 RX4       0.0493
     52 H18        30.1945   -4.5593   44.5584 H           1 RX4       0.0493
     53 H19        27.9885   -3.7172   42.5945 H           1 RX4       0.0551
     54 H20        26.3884   -4.6924   44.3657 H           1 RX4       0.0257
     55 H21        27.7992   -5.5203   45.0566 H           1 RX4       0.0257
     56 H22        27.2620   -5.8525   43.3886 H           1 RX4       0.0257
     57 H23        28.0829   -1.5251   42.9066 H           1 RX4       0.1883
     58 H24        28.1349   -0.0356   45.2265 H           1 RX4       0.0797
     59 H25        26.8683    1.6586   43.9096 H           1 RX4       0.0277
     60 H26        26.6619    0.4749   42.6078 H           1 RX4       0.0277
     61 H27        28.2784    1.0149   43.0617 H           1 RX4       0.0277
     62 H28        24.1755   -0.9124   45.0171 H           1 RX4       0.1815
     63 H29        24.9209   -0.2580   43.6730 H           1 RX4       0.1815
@<TRIPOS>BOND
     1     1     2  ar
     2     1     6  ar
     3     2     3  ar
     4     3     4  ar
     5     4     5  ar
     6     5     6  ar
     7     6     7   1
     8     7     8   1
     9     8     9   1
    10     8    21   1
    11     9    10  am
    12    10    11   2
    13    10    12   1
    14    12    13   1
    15    12    17   1
    16    13    14   1
    17    14    15  ar
    18    14    16  ar
    19    17    18  am
    20    18    19   1
    21    18    20   2
    22    21    22  ar
    23    21    23  ar
    24    21    24   1
    25    24    25   1
    26    25    26   1
    27    25    27   1
    28    27    28   2
    29    27    29  am
    30    29    30   1
    31    30    31   1
    32    30    32   1
    33    32    33   2
    34    32    34  am
    35     1    35   1
    36     2    36   1
    37     3    37   1
    38     4    38   1
    39     5    39   1
    40     7    40   1
    41     7    41   1
    42     8    42   1
    43     9    43   1
    44    12    44   1
    45    13    45   1
    46    13    46   1
    47    17    47   1
    48    19    48   1
    49    19    49   1
    50    19    50   1
    51    24    51   1
    52    24    52   1
    53    25    53   1
    54    26    54   1
    55    26    55   1
    56    26    56   1
    57    29    57   1
    58    30    58   1
    59    31    59   1
    60    31    60   1
    61    31    61   1
    62    34    62   1
    63    34    63   1
@<TRIPOS>SUBSTRUCTURE
     1  RX4      1

