@<TRIPOS>MOLECULE
2x97_ligand_005
    63    63
SMALL
GAST_HUCK
****
This file was generated by PARSER (from files_GN.cpp)

@<TRIPOS>ATOM
      1 CAP        29.3632   -9.9831   39.5447 C.ar        1 RX4      -0.0602
      2 CAN        30.1033  -10.9352   38.8225 C.ar        1 RX4      -0.0686
      3 CAM        29.5509  -11.5358   37.6788 C.ar        1 RX4      -0.0687
      4 CAO        28.2618  -11.1763   37.2529 C.ar        1 RX4      -0.0686
      5 CAQ        27.5257  -10.2120   37.9629 C.ar        1 RX4      -0.0602
      6 CBC        28.0663   -9.6003   39.1197 C.ar        1 RX4      -0.0393
      7 CAS        27.3017   -8.5593   39.8610 C.3         1 RX4       0.0205
      8 CBG        27.3572   -7.1455   39.1883 C.3         1 RX4       0.1158
      9 NAW        28.7311   -6.7609   38.9786 N.am        1 RX4      -0.2644
     10 CBB        29.2057   -5.7591   38.2404 C.2         1 RX4       0.2049
     11 OAI        28.4223   -4.9689   37.7256 O.2         1 RX4      -0.3944
     12 CBF        30.6401   -5.6599   37.9331 C.3         1 RX4       0.1421
     13 CAR        31.6054   -5.7468   39.1645 C.3         1 RX4       0.0406
     14 CAZ        31.7339   -7.0907   39.7662 C.2         1 RX4       0.0393
     15 OAK        32.5056   -8.0260   39.1586 O.co2       1 RX4      -0.5688
     16 OAG        31.3026   -7.3194   41.0306 O.co2       1 RX4      -0.5688
     17 NAU        30.9015   -4.5437   37.0521 N.am        1 RX4      -0.2643
     18 CAX        31.5844   -3.4191   37.2491 C.2         1 RX4       0.1752
     19 CAA        31.5817   -2.4379   36.1929 C.3         1 RX4       0.0258
     20 OAE        32.1937   -3.1784   38.2862 O.2         1 RX4      -0.3972
     21 P1         26.4285   -6.0237   40.0431 P.3         1 RX4       0.0153
     22 O4         25.0619   -6.3779   39.7243 O.co2       1 RX4      -0.6174
     23 O3         26.4830   -4.6814   39.5146 O.co2       1 RX4      -0.6174
     24 CAT        26.4395   -5.9385   41.7211 C.3         1 RX4       0.0350
     25 CBD        27.7408   -5.5969   42.5503 C.3         1 RX4       0.0618
     26 CAB        29.0432   -5.2896   41.7484 C.3         1 RX4      -0.0438
     27 CBA        27.5084   -4.5541   43.5591 C.2         1 RX4       0.1825
     28 OAH        27.1228   -4.9007   44.6699 O.2         1 RX4      -0.3966
     29 N          27.7901   -3.2819   43.3087 N.am        1 RX4      -0.2656
     30 CA         27.7887   -2.2192   44.2804 C.3         1 RX4       0.1278
     31 CB         28.2694   -0.8989   43.6310 C.3         1 RX4      -0.0244
     32 C          26.4817   -2.0692   44.9046 C.2         1 RX4       0.1989
     33 O          26.3066   -2.4094   46.0653 O.2         1 RX4      -0.3947
     34 NAD        25.4489   -1.5915   44.2533 N.am        1 RX4      -0.2990
     35 H1         29.7818   -9.5524   40.3705 H           1 RX4       0.0557
     36 H2         31.0461  -11.1857   39.1261 H           1 RX4       0.0599
     37 H3         30.0907  -12.2289   37.1564 H           1 RX4       0.0559
     38 H4         27.8616  -11.6153   36.4197 H           1 RX4       0.0599
     39 H5         26.5911   -9.9540   37.6351 H           1 RX4       0.0557
     40 H6         27.6863   -8.4817   40.8846 H           1 RX4       0.0465
     41 H7         26.2615   -8.8930   39.9473 H           1 RX4       0.0465
     42 H8         26.8994   -7.2511   38.1976 H           1 RX4       0.0788
     43 H9         29.3894   -7.3824   39.3134 H           1 RX4       0.1872
     44 H10        30.8701   -6.5351   37.3124 H           1 RX4       0.0819
     45 H11        31.2966   -5.0254   39.9263 H           1 RX4       0.0478
     46 H12        32.6077   -5.4756   38.8352 H           1 RX4       0.0478
     47 H13        30.4298   -4.5855   36.2040 H           1 RX4       0.1884
     48 H14        32.2436   -1.6005   36.4312 H           1 RX4       0.0467
     49 H15        30.5651   -2.0552   36.0628 H           1 RX4       0.0467
     50 H16        31.9231   -2.8942   35.2576 H           1 RX4       0.0467
     51 H17        26.0748   -6.9065   42.0769 H           1 RX4       0.0493
     52 H18        25.6500   -5.2226   41.9816 H           1 RX4       0.0493
     53 H19        27.9968   -6.5177   43.0947 H           1 RX4       0.0551
     54 H20        29.8566   -4.9715   42.4197 H           1 RX4       0.0257
     55 H21        28.8705   -4.5014   41.0051 H           1 RX4       0.0257
     56 H22        29.3799   -6.1989   41.2342 H           1 RX4       0.0257
     57 H23        28.1464   -3.0663   42.4287 H           1 RX4       0.1883
     58 H24        28.5340   -2.4727   45.0426 H           1 RX4       0.0797
     59 H25        28.2907   -0.0962   44.3711 H           1 RX4       0.0277
     60 H26        27.6129   -0.6040   42.8109 H           1 RX4       0.0277
     61 H27        29.2792   -1.0245   43.2365 H           1 RX4       0.0277
     62 H28        24.5821   -1.5416   44.6861 H           1 RX4       0.1815
     63 H29        25.5454   -1.2981   43.3350 H           1 RX4       0.1815
@<TRIPOS>BOND
     1     1     2  ar
     2     1     6  ar
     3     2     3  ar
     4     3     4  ar
     5     4     5  ar
     6     5     6  ar
     7     6     7   1
     8     7     8   1
     9     8     9   1
    10     8    21   1
    11     9    10  am
    12    10    11   2
    13    10    12   1
    14    12    13   1
    15    12    17   1
    16    13    14   1
    17    14    15  ar
    18    14    16  ar
    19    17    18  am
    20    18    19   1
    21    18    20   2
    22    21    22  ar
    23    21    23  ar
    24    21    24   1
    25    24    25   1
    26    25    26   1
    27    25    27   1
    28    27    28   2
    29    27    29  am
    30    29    30   1
    31    30    31   1
    32    30    32   1
    33    32    33   2
    34    32    34  am
    35     1    35   1
    36     2    36   1
    37     3    37   1
    38     4    38   1
    39     5    39   1
    40     7    40   1
    41     7    41   1
    42     8    42   1
    43     9    43   1
    44    12    44   1
    45    13    45   1
    46    13    46   1
    47    17    47   1
    48    19    48   1
    49    19    49   1
    50    19    50   1
    51    24    51   1
    52    24    52   1
    53    25    53   1
    54    26    54   1
    55    26    55   1
    56    26    56   1
    57    29    57   1
    58    30    58   1
    59    31    59   1
    60    31    60   1
    61    31    61   1
    62    34    62   1
    63    34    63   1
@<TRIPOS>SUBSTRUCTURE
     1  RX4      1

