@<TRIPOS>MOLECULE
2x97_ligand_057
    63    63
SMALL
GAST_HUCK
****
This file was generated by PARSER (from files_GN.cpp)

@<TRIPOS>ATOM
      1 CAP        25.0449   -6.0043   39.0069 C.ar        1 RX4      -0.0602
      2 CAN        24.7249   -5.0676   38.0070 C.ar        1 RX4      -0.0686
      3 CAM        25.2608   -5.2081   36.7154 C.ar        1 RX4      -0.0687
      4 CAO        26.0580   -6.3264   36.4084 C.ar        1 RX4      -0.0686
      5 CAQ        26.3654   -7.2696   37.4100 C.ar        1 RX4      -0.0602
      6 CBC        25.9192   -7.0878   38.7446 C.ar        1 RX4      -0.0393
      7 CAS        26.3509   -8.0053   39.8440 C.3         1 RX4       0.0205
      8 CBG        27.9091   -8.2182   39.9369 C.3         1 RX4       0.1158
      9 NAW        28.1943   -9.5259   39.3971 N.am        1 RX4      -0.2644
     10 CBB        28.8995   -9.8543   38.3199 C.2         1 RX4       0.2049
     11 OAI        29.5310   -9.0049   37.7075 O.2         1 RX4      -0.3944
     12 CBF        28.8749  -11.2482   37.8626 C.3         1 RX4       0.1421
     13 CAR        29.7302  -12.2176   38.7374 C.3         1 RX4       0.0406
     14 CAZ        31.1755  -11.9453   38.7454 C.2         1 RX4       0.0393
     15 OAK        32.0436  -12.8456   38.2341 O.co2       1 RX4      -0.5688
     16 OAG        31.6659  -10.8258   39.3232 O.co2       1 RX4      -0.5688
     17 NAU        29.0499  -11.4640   36.4492 N.am        1 RX4      -0.2643
     18 CAX        30.0680  -11.1506   35.6582 C.2         1 RX4       0.1752
     19 CAA        29.9840  -11.5366   34.2698 C.3         1 RX4       0.0258
     20 OAE        31.0528  -10.5469   36.0570 O.2         1 RX4      -0.3972
     21 P1         28.6002   -8.1098   41.4694 P.3         1 RX4       0.0153
     22 O4         30.0188   -7.9489   41.2826 O.co2       1 RX4      -0.6174
     23 O3         28.5053   -9.3917   42.1195 O.co2       1 RX4      -0.6174
     24 CAT        28.0997   -6.9861   42.6117 C.3         1 RX4       0.0350
     25 CBD        28.1515   -5.4480   42.2880 C.3         1 RX4       0.0618
     26 CAB        27.1279   -5.0462   41.1811 C.3         1 RX4      -0.0438
     27 CBA        27.9362   -4.5916   43.4677 C.2         1 RX4       0.1825
     28 OAH        27.6541   -5.0669   44.5623 O.2         1 RX4      -0.3966
     29 N          28.0585   -3.2751   43.3344 N.am        1 RX4      -0.2656
     30 CA         27.8986   -2.2540   44.3290 C.3         1 RX4       0.1278
     31 CB         28.3118   -0.8930   43.7104 C.3         1 RX4      -0.0244
     32 C          26.5497   -2.1899   44.8838 C.2         1 RX4       0.1989
     33 O          26.3487   -2.4980   46.0478 O.2         1 RX4      -0.3947
     34 NAD        25.5035   -1.7986   44.1869 N.am        1 RX4      -0.2990
     35 H1         24.6407   -5.8795   39.9366 H           1 RX4       0.0557
     36 H2         24.1219   -4.2690   38.2276 H           1 RX4       0.0599
     37 H3         25.0486   -4.5117   35.9993 H           1 RX4       0.0559
     38 H4         26.4284   -6.4445   35.4587 H           1 RX4       0.0599
     39 H5         26.9505   -8.0689   37.1585 H           1 RX4       0.0557
     40 H6         25.8418   -8.9593   39.6830 H           1 RX4       0.0465
     41 H7         25.9676   -7.6312   40.7963 H           1 RX4       0.0465
     42 H8         28.4145   -7.4511   39.3397 H           1 RX4       0.0788
     43 H9         27.7496  -10.2707   39.8371 H           1 RX4       0.1872
     44 H10        27.8404  -11.5802   38.0078 H           1 RX4       0.0819
     45 H11        29.5619  -13.2387   38.3816 H           1 RX4       0.0478
     46 H12        29.3891  -12.1789   39.7728 H           1 RX4       0.0478
     47 H13        28.3252  -11.9378   36.0098 H           1 RX4       0.1884
     48 H14        30.8467  -11.1842   33.6996 H           1 RX4       0.0467
     49 H15        29.0793  -11.1154   33.8253 H           1 RX4       0.0467
     50 H16        29.9414  -12.6254   34.1923 H           1 RX4       0.0467
     51 H17        28.7503   -7.1575   43.4768 H           1 RX4       0.0493
     52 H18        27.0837   -7.2435   42.9205 H           1 RX4       0.0493
     53 H19        29.1579   -5.2235   41.9150 H           1 RX4       0.0551
     54 H20        27.1435   -3.9711   40.9744 H           1 RX4       0.0257
     55 H21        26.1182   -5.3101   41.5080 H           1 RX4       0.0257
     56 H22        27.3482   -5.5461   40.2385 H           1 RX4       0.0257
     57 H23        28.3210   -2.9632   42.4569 H           1 RX4       0.1883
     58 H24        28.6095   -2.4739   45.1308 H           1 RX4       0.0797
     59 H25        28.2771   -0.0993   44.4585 H           1 RX4       0.0277
     60 H26        27.6490   -0.6256   42.8831 H           1 RX4       0.0277
     61 H27        29.3284   -0.9547   43.3216 H           1 RX4       0.0277
     62 H28        24.6245   -1.7789   44.6037 H           1 RX4       0.1815
     63 H29        25.5991   -1.5123   43.2634 H           1 RX4       0.1815
@<TRIPOS>BOND
     1     1     2  ar
     2     1     6  ar
     3     2     3  ar
     4     3     4  ar
     5     4     5  ar
     6     5     6  ar
     7     6     7   1
     8     7     8   1
     9     8     9   1
    10     8    21   1
    11     9    10  am
    12    10    11   2
    13    10    12   1
    14    12    13   1
    15    12    17   1
    16    13    14   1
    17    14    15  ar
    18    14    16  ar
    19    17    18  am
    20    18    19   1
    21    18    20   2
    22    21    22  ar
    23    21    23  ar
    24    21    24   1
    25    24    25   1
    26    25    26   1
    27    25    27   1
    28    27    28   2
    29    27    29  am
    30    29    30   1
    31    30    31   1
    32    30    32   1
    33    32    33   2
    34    32    34  am
    35     1    35   1
    36     2    36   1
    37     3    37   1
    38     4    38   1
    39     5    39   1
    40     7    40   1
    41     7    41   1
    42     8    42   1
    43     9    43   1
    44    12    44   1
    45    13    45   1
    46    13    46   1
    47    17    47   1
    48    19    48   1
    49    19    49   1
    50    19    50   1
    51    24    51   1
    52    24    52   1
    53    25    53   1
    54    26    54   1
    55    26    55   1
    56    26    56   1
    57    29    57   1
    58    30    58   1
    59    31    59   1
    60    31    60   1
    61    31    61   1
    62    34    62   1
    63    34    63   1
@<TRIPOS>SUBSTRUCTURE
     1  RX4      1

