@<TRIPOS>MOLECULE
2x97_ligand_025
    63    63
SMALL
GAST_HUCK
****
This file was generated by PARSER (from files_GN.cpp)

@<TRIPOS>ATOM
      1 CAP        28.4639   -5.4814   41.0599 C.ar        1 RX4      -0.0602
      2 CAN        28.6134   -4.4560   42.0107 C.ar        1 RX4      -0.0686
      3 CAM        29.8773   -4.1916   42.5657 C.ar        1 RX4      -0.0687
      4 CAO        30.9859   -4.9641   42.1793 C.ar        1 RX4      -0.0686
      5 CAQ        30.8244   -6.0258   41.2696 C.ar        1 RX4      -0.0602
      6 CBC        29.5563   -6.3104   40.7077 C.ar        1 RX4      -0.0393
      7 CAS        29.3714   -7.4733   39.7890 C.3         1 RX4       0.0205
      8 CBG        29.2329   -8.8815   40.4825 C.3         1 RX4       0.1158
      9 NAW        29.2733   -9.9750   39.5420 N.am        1 RX4      -0.2644
     10 CBB        30.2077  -10.2755   38.6456 C.2         1 RX4       0.2049
     11 OAI        31.2586   -9.6540   38.5758 O.2         1 RX4      -0.3944
     12 CBF        29.9786  -11.3655   37.6987 C.3         1 RX4       0.1421
     13 CAR        28.6946  -11.1268   36.8397 C.3         1 RX4       0.0406
     14 CAZ        28.2670  -12.2686   36.0073 C.2         1 RX4       0.0393
     15 OAK        29.1416  -13.1885   35.5420 O.co2       1 RX4      -0.5688
     16 OAG        26.9545  -12.4496   35.7394 O.co2       1 RX4      -0.5688
     17 NAU        29.9289  -12.6217   38.3988 N.am        1 RX4      -0.2643
     18 CAX        30.9706  -13.2900   38.8815 C.2         1 RX4       0.1752
     19 CAA        30.7518  -14.5739   39.5047 C.3         1 RX4       0.0258
     20 OAE        32.1123  -12.8556   38.7880 O.2         1 RX4      -0.3972
     21 P1         27.7897   -9.0515   41.3316 P.3         1 RX4       0.0153
     22 O4         26.7126   -8.9324   40.3773 O.co2       1 RX4      -0.6174
     23 O3         27.5615   -7.9239   42.2047 O.co2       1 RX4      -0.6174
     24 CAT        27.5480  -10.4595   42.2145 C.3         1 RX4       0.0350
     25 CBD        27.4863  -10.2984   43.7776 C.3         1 RX4       0.0618
     26 CAB        26.6742  -11.4216   44.4739 C.3         1 RX4      -0.0438
     27 CBA        28.8313  -10.1895   44.3390 C.2         1 RX4       0.1825
     28 OAH        29.5674  -11.1691   44.2933 O.2         1 RX4      -0.3966
     29 N          29.2643   -9.0313   44.8190 N.am        1 RX4      -0.2656
     30 CA         30.5527   -8.7651   45.3949 C.3         1 RX4       0.1278
     31 CB         31.2571   -7.7053   44.5107 C.3         1 RX4      -0.0244
     32 C          30.3552   -8.3937   46.7915 C.2         1 RX4       0.1989
     33 O          30.7565   -7.3347   47.2549 O.2         1 RX4      -0.3947
     34 NAD        29.7160   -9.2069   47.6073 N.am        1 RX4      -0.2990
     35 H1         27.5340   -5.6675   40.6786 H           1 RX4       0.0557
     36 H2         27.8024   -3.8973   42.2932 H           1 RX4       0.0599
     37 H3         29.9881   -3.4414   43.2497 H           1 RX4       0.0559
     38 H4         31.9051   -4.7692   42.5798 H           1 RX4       0.0599
     39 H5         31.6407   -6.5878   41.0140 H           1 RX4       0.0557
     40 H6         30.2323   -7.4674   39.1228 H           1 RX4       0.0465
     41 H7         28.5078   -7.3078   39.1401 H           1 RX4       0.0465
     42 H8         30.0553   -9.0144   41.1884 H           1 RX4       0.0788
     43 H9         28.5067  -10.5731   39.5488 H           1 RX4       0.1872
     44 H10        30.8112  -11.4113   36.9815 H           1 RX4       0.0819
     45 H11        28.8688  -10.2831   36.1678 H           1 RX4       0.0478
     46 H12        27.8539  -10.8600   37.4830 H           1 RX4       0.0478
     47 H13        29.0635  -13.0567   38.4609 H           1 RX4       0.1884
     48 H14        31.6847  -14.9998   39.8830 H           1 RX4       0.0467
     49 H15        30.3212  -15.2729   38.7866 H           1 RX4       0.0467
     50 H16        30.0626  -14.4593   40.3410 H           1 RX4       0.0467
     51 H17        28.3283  -11.1681   41.9384 H           1 RX4       0.0493
     52 H18        26.6130  -10.9077   41.8710 H           1 RX4       0.0493
     53 H19        26.9202   -9.3921   44.0169 H           1 RX4       0.0551
     54 H20        26.6509  -11.2502   45.5518 H           1 RX4       0.0257
     55 H21        27.1115  -12.4006   44.2778 H           1 RX4       0.0257
     56 H22        25.6461  -11.4160   44.1107 H           1 RX4       0.0257
     57 H23        28.6364   -8.2896   44.8028 H           1 RX4       0.1883
     58 H24        31.1896   -9.6546   45.3952 H           1 RX4       0.0797
     59 H25        32.2548   -7.4862   44.8967 H           1 RX4       0.0277
     60 H26        30.6750   -6.7811   44.4903 H           1 RX4       0.0277
     61 H27        31.3587   -8.0805   43.4931 H           1 RX4       0.0277
     62 H28        29.5539   -8.9584   48.5313 H           1 RX4       0.1815
     63 H29        29.3651  -10.0473   47.2723 H           1 RX4       0.1815
@<TRIPOS>BOND
     1     1     2  ar
     2     1     6  ar
     3     2     3  ar
     4     3     4  ar
     5     4     5  ar
     6     5     6  ar
     7     6     7   1
     8     7     8   1
     9     8     9   1
    10     8    21   1
    11     9    10  am
    12    10    11   2
    13    10    12   1
    14    12    13   1
    15    12    17   1
    16    13    14   1
    17    14    15  ar
    18    14    16  ar
    19    17    18  am
    20    18    19   1
    21    18    20   2
    22    21    22  ar
    23    21    23  ar
    24    21    24   1
    25    24    25   1
    26    25    26   1
    27    25    27   1
    28    27    28   2
    29    27    29  am
    30    29    30   1
    31    30    31   1
    32    30    32   1
    33    32    33   2
    34    32    34  am
    35     1    35   1
    36     2    36   1
    37     3    37   1
    38     4    38   1
    39     5    39   1
    40     7    40   1
    41     7    41   1
    42     8    42   1
    43     9    43   1
    44    12    44   1
    45    13    45   1
    46    13    46   1
    47    17    47   1
    48    19    48   1
    49    19    49   1
    50    19    50   1
    51    24    51   1
    52    24    52   1
    53    25    53   1
    54    26    54   1
    55    26    55   1
    56    26    56   1
    57    29    57   1
    58    30    58   1
    59    31    59   1
    60    31    60   1
    61    31    61   1
    62    34    62   1
    63    34    63   1
@<TRIPOS>SUBSTRUCTURE
     1  RX4      1

