@<TRIPOS>MOLECULE
2x97_ligand_059
    63    63
SMALL
GAST_HUCK
****
This file was generated by PARSER (from files_GN.cpp)

@<TRIPOS>ATOM
      1 CAP        27.0341   -8.1304   39.8821 C.ar        1 RX4      -0.0602
      2 CAN        26.3120   -7.2127   40.6685 C.ar        1 RX4      -0.0686
      3 CAM        25.6359   -6.1428   40.0583 C.ar        1 RX4      -0.0687
      4 CAO        25.6750   -5.9917   38.6610 C.ar        1 RX4      -0.0686
      5 CAQ        26.4032   -6.9077   37.8757 C.ar        1 RX4      -0.0602
      6 CBC        27.1082   -7.9744   38.4767 C.ar        1 RX4      -0.0393
      7 CAS        27.9270   -8.9214   37.6707 C.3         1 RX4       0.0205
      8 CBG        29.4744   -8.8169   37.9152 C.3         1 RX4       0.1158
      9 NAW        30.0149   -7.6038   37.3490 N.am        1 RX4      -0.2644
     10 CBB        29.9037   -6.3668   37.8325 C.2         1 RX4       0.2049
     11 OAI        29.2980   -6.1656   38.8828 O.2         1 RX4      -0.3944
     12 CBF        30.4839   -5.2235   37.1208 C.3         1 RX4       0.1421
     13 CAR        31.6088   -4.5439   37.9560 C.3         1 RX4       0.0406
     14 CAZ        32.2569   -3.3777   37.3251 C.2         1 RX4       0.0393
     15 OAK        33.0976   -2.6102   38.0502 O.co2       1 RX4      -0.5688
     16 OAG        32.0168   -3.0018   36.0497 O.co2       1 RX4      -0.5688
     17 NAU        29.4455   -4.2771   36.8339 N.am        1 RX4      -0.2643
     18 CAX        28.6312   -4.2736   35.7883 C.2         1 RX4       0.1752
     19 CAA        27.6623   -3.2050   35.6700 C.3         1 RX4       0.0258
     20 OAE        28.6808   -5.1341   34.9187 O.2         1 RX4      -0.3972
     21 P1         30.2853  -10.1645   37.3266 P.3         1 RX4       0.0153
     22 O4         31.6301   -9.8177   36.9499 O.co2       1 RX4      -0.6174
     23 O3         29.6572  -10.6259   36.1106 O.co2       1 RX4      -0.6174
     24 CAT        30.3865  -11.3909   38.4718 C.3         1 RX4       0.0350
     25 CBD        30.4471  -12.8776   37.9529 C.3         1 RX4       0.0618
     26 CAB        31.6285  -13.6660   38.5947 C.3         1 RX4      -0.0438
     27 CBA        29.1603  -13.5532   38.1241 C.2         1 RX4       0.1825
     28 OAH        29.0103  -14.3835   39.0111 O.2         1 RX4      -0.3966
     29 N          28.1404  -13.2298   37.3371 N.am        1 RX4      -0.2656
     30 CA         26.7995  -13.7485   37.3963 C.3         1 RX4       0.1278
     31 CB         25.8170  -12.5725   37.6289 C.3         1 RX4      -0.0244
     32 C          26.5294  -14.5072   36.1866 C.2         1 RX4       0.1989
     33 O          26.3264  -13.9463   35.1198 O.2         1 RX4      -0.3947
     34 NAD        26.6184  -15.8194   36.1689 N.am        1 RX4      -0.2990
     35 H1         27.5124   -8.9054   40.3467 H           1 RX4       0.0557
     36 H2         26.2846   -7.3192   41.6870 H           1 RX4       0.0599
     37 H3         25.1140   -5.4738   40.6291 H           1 RX4       0.0559
     38 H4         25.1806   -5.2145   38.2155 H           1 RX4       0.0599
     39 H5         26.4281   -6.7772   36.8609 H           1 RX4       0.0557
     40 H6         27.7324   -8.7741   36.6017 H           1 RX4       0.0465
     41 H7         27.5659   -9.9304   37.9199 H           1 RX4       0.0465
     42 H8         29.6638   -8.8096   38.9930 H           1 RX4       0.0788
     43 H9         30.5441   -7.7060   36.5489 H           1 RX4       0.1872
     44 H10        30.9342   -5.5620   36.1843 H           1 RX4       0.0819
     45 H11        32.3954   -5.2770   38.1653 H           1 RX4       0.0478
     46 H12        31.2043   -4.2149   38.9108 H           1 RX4       0.0478
     47 H13        29.3733   -3.5161   37.4288 H           1 RX4       0.1884
     48 H14        27.0837   -3.2768   34.7436 H           1 RX4       0.0467
     49 H15        28.1742   -2.2410   35.6816 H           1 RX4       0.0467
     50 H16        26.9699   -3.2508   36.5109 H           1 RX4       0.0467
     51 H17        29.5284  -11.2735   39.1523 H           1 RX4       0.0493
     52 H18        31.2591  -11.1608   39.0802 H           1 RX4       0.0493
     53 H19        30.6705  -12.8915   36.8780 H           1 RX4       0.0551
     54 H20        31.6512  -14.6879   38.2213 H           1 RX4       0.0257
     55 H21        31.5244  -13.6987   39.6757 H           1 RX4       0.0257
     56 H22        32.5849  -13.1964   38.3467 H           1 RX4       0.0257
     57 H23        28.3138  -12.5688   36.6447 H           1 RX4       0.1883
     58 H24        26.6772  -14.4215   38.2541 H           1 RX4       0.0797
     59 H25        24.7945  -12.9327   37.7198 H           1 RX4       0.0277
     60 H26        25.8646  -11.8637   36.8088 H           1 RX4       0.0277
     61 H27        26.0652  -12.0448   38.5548 H           1 RX4       0.0277
     62 H28        26.4855  -16.3075   35.3381 H           1 RX4       0.1815
     63 H29        26.8448  -16.3082   36.9785 H           1 RX4       0.1815
@<TRIPOS>BOND
     1     1     2  ar
     2     1     6  ar
     3     2     3  ar
     4     3     4  ar
     5     4     5  ar
     6     5     6  ar
     7     6     7   1
     8     7     8   1
     9     8     9   1
    10     8    21   1
    11     9    10  am
    12    10    11   2
    13    10    12   1
    14    12    13   1
    15    12    17   1
    16    13    14   1
    17    14    15  ar
    18    14    16  ar
    19    17    18  am
    20    18    19   1
    21    18    20   2
    22    21    22  ar
    23    21    23  ar
    24    21    24   1
    25    24    25   1
    26    25    26   1
    27    25    27   1
    28    27    28   2
    29    27    29  am
    30    29    30   1
    31    30    31   1
    32    30    32   1
    33    32    33   2
    34    32    34  am
    35     1    35   1
    36     2    36   1
    37     3    37   1
    38     4    38   1
    39     5    39   1
    40     7    40   1
    41     7    41   1
    42     8    42   1
    43     9    43   1
    44    12    44   1
    45    13    45   1
    46    13    46   1
    47    17    47   1
    48    19    48   1
    49    19    49   1
    50    19    50   1
    51    24    51   1
    52    24    52   1
    53    25    53   1
    54    26    54   1
    55    26    55   1
    56    26    56   1
    57    29    57   1
    58    30    58   1
    59    31    59   1
    60    31    60   1
    61    31    61   1
    62    34    62   1
    63    34    63   1
@<TRIPOS>SUBSTRUCTURE
     1  RX4      1

