@<TRIPOS>MOLECULE
2x97_ligand_008
    63    63
SMALL
GAST_HUCK
****
This file was generated by PARSER (from files_GN.cpp)

@<TRIPOS>ATOM
      1 CAP        31.4117  -10.5408   35.2445 C.ar        1 RX4      -0.0602
      2 CAN        31.0094  -11.2967   34.1245 C.ar        1 RX4      -0.0686
      3 CAM        29.6986  -11.7979   34.0447 C.ar        1 RX4      -0.0687
      4 CAO        28.8016  -11.5816   35.1037 C.ar        1 RX4      -0.0686
      5 CAQ        29.2199  -10.8668   36.2397 C.ar        1 RX4      -0.0602
      6 CBC        30.5145  -10.2924   36.3124 C.ar        1 RX4      -0.0393
      7 CAS        30.9274   -9.5113   37.5206 C.3         1 RX4       0.0205
      8 CBG        29.9547   -8.3325   37.9211 C.3         1 RX4       0.1158
      9 NAW        30.4774   -7.0752   37.4461 N.am        1 RX4      -0.2644
     10 CBB        29.8002   -6.0116   37.0226 C.2         1 RX4       0.2049
     11 OAI        28.5767   -6.0509   36.9825 O.2         1 RX4      -0.3944
     12 CBF        30.5064   -4.8119   36.5622 C.3         1 RX4       0.1421
     13 CAR        31.5437   -4.2757   37.6020 C.3         1 RX4       0.0406
     14 CAZ        32.3551   -3.1216   37.1558 C.2         1 RX4       0.0393
     15 OAK        33.2167   -2.5413   38.0210 O.co2       1 RX4      -0.5688
     16 OAG        32.3308   -2.6600   35.8852 O.co2       1 RX4      -0.5688
     17 NAU        29.5967   -3.7352   36.2511 N.am        1 RX4      -0.2643
     18 CAX        28.9228   -3.5663   35.1222 C.2         1 RX4       0.1752
     19 CAA        27.9694   -2.4852   35.0429 C.3         1 RX4       0.0258
     20 OAE        29.0581   -4.3237   34.1683 O.2         1 RX4      -0.3972
     21 P1         29.6011   -8.2348   39.5637 P.3         1 RX4       0.0153
     22 O4         30.7156   -7.6993   40.3021 O.co2       1 RX4      -0.6174
     23 O3         29.4349   -9.5674   40.0851 O.co2       1 RX4      -0.6174
     24 CAT        28.1638   -7.4280   39.8913 C.3         1 RX4       0.0350
     25 CBD        28.2824   -5.9388   40.3664 C.3         1 RX4       0.0618
     26 CAB        26.9840   -5.1259   40.0861 C.3         1 RX4      -0.0438
     27 CBA        28.6299   -5.8777   41.7860 C.2         1 RX4       0.1825
     28 OAH        27.8246   -6.2990   42.6102 O.2         1 RX4      -0.3966
     29 N          29.8186   -5.4279   42.1686 N.am        1 RX4      -0.2656
     30 CA         30.3227   -5.4151   43.5130 C.3         1 RX4       0.1278
     31 CB         30.6990   -6.8366   44.0104 C.3         1 RX4      -0.0244
     32 C          31.4729   -4.5260   43.5920 C.2         1 RX4       0.1989
     33 O          32.4502   -4.6895   42.8726 O.2         1 RX4      -0.3947
     34 NAD        31.4906   -3.5109   44.4288 N.am        1 RX4      -0.2990
     35 H1         32.3709  -10.1891   35.2814 H           1 RX4       0.0557
     36 H2         31.6707  -11.4836   33.3658 H           1 RX4       0.0599
     37 H3         29.4007  -12.3322   33.2254 H           1 RX4       0.0559
     38 H4         27.8512  -11.9523   35.0552 H           1 RX4       0.0599
     39 H5         28.5586  -10.7566   37.0141 H           1 RX4       0.0557
     40 H6         31.9345   -9.1076   37.3804 H           1 RX4       0.0465
     41 H7         31.0258  -10.2478   38.3208 H           1 RX4       0.0465
     42 H8         28.9957   -8.5048   37.4322 H           1 RX4       0.0788
     43 H9         31.4436   -6.9963   37.4432 H           1 RX4       0.1872
     44 H10        31.0627   -5.0905   35.6602 H           1 RX4       0.0819
     45 H11        32.2502   -5.0653   37.8647 H           1 RX4       0.0478
     46 H12        31.0190   -3.9884   38.5143 H           1 RX4       0.0478
     47 H13        29.4377   -3.0858   36.9555 H           1 RX4       0.1884
     48 H14        27.4839   -2.4440   34.0647 H           1 RX4       0.0467
     49 H15        28.4680   -1.5304   35.2233 H           1 RX4       0.0467
     50 H16        27.1984   -2.6331   35.8001 H           1 RX4       0.0467
     51 H17        27.6056   -7.9984   40.6396 H           1 RX4       0.0493
     52 H18        27.5573   -7.4686   38.9867 H           1 RX4       0.0493
     53 H19        29.0653   -5.4483   39.7777 H           1 RX4       0.0551
     54 H20        27.0960   -4.0946   40.4309 H           1 RX4       0.0257
     55 H21        26.1235   -5.5729   40.5902 H           1 RX4       0.0257
     56 H22        26.7768   -5.0988   39.0141 H           1 RX4       0.0257
     57 H23        30.4030   -5.0892   41.4716 H           1 RX4       0.1883
     58 H24        29.5333   -5.0324   44.1714 H           1 RX4       0.0797
     59 H25        31.0659   -6.7898   45.0379 H           1 RX4       0.0277
     60 H26        31.4727   -7.2787   43.3805 H           1 RX4       0.0277
     61 H27        29.8262   -7.4901   43.9949 H           1 RX4       0.0277
     62 H28        32.2684   -2.9334   44.4804 H           1 RX4       0.1815
     63 H29        30.7291   -3.3459   45.0067 H           1 RX4       0.1815
@<TRIPOS>BOND
     1     1     2  ar
     2     1     6  ar
     3     2     3  ar
     4     3     4  ar
     5     4     5  ar
     6     5     6  ar
     7     6     7   1
     8     7     8   1
     9     8     9   1
    10     8    21   1
    11     9    10  am
    12    10    11   2
    13    10    12   1
    14    12    13   1
    15    12    17   1
    16    13    14   1
    17    14    15  ar
    18    14    16  ar
    19    17    18  am
    20    18    19   1
    21    18    20   2
    22    21    22  ar
    23    21    23  ar
    24    21    24   1
    25    24    25   1
    26    25    26   1
    27    25    27   1
    28    27    28   2
    29    27    29  am
    30    29    30   1
    31    30    31   1
    32    30    32   1
    33    32    33   2
    34    32    34  am
    35     1    35   1
    36     2    36   1
    37     3    37   1
    38     4    38   1
    39     5    39   1
    40     7    40   1
    41     7    41   1
    42     8    42   1
    43     9    43   1
    44    12    44   1
    45    13    45   1
    46    13    46   1
    47    17    47   1
    48    19    48   1
    49    19    49   1
    50    19    50   1
    51    24    51   1
    52    24    52   1
    53    25    53   1
    54    26    54   1
    55    26    55   1
    56    26    56   1
    57    29    57   1
    58    30    58   1
    59    31    59   1
    60    31    60   1
    61    31    61   1
    62    34    62   1
    63    34    63   1
@<TRIPOS>SUBSTRUCTURE
     1  RX4      1

