@<TRIPOS>MOLECULE
2x97_ligand_036
    63    63
SMALL
GAST_HUCK
****
This file was generated by PARSER (from files_GN.cpp)

@<TRIPOS>ATOM
      1 CAP        28.8027  -11.1679   37.0046 C.ar        1 RX4      -0.0602
      2 CAN        28.1623  -12.4141   37.1680 C.ar        1 RX4      -0.0686
      3 CAM        28.6760  -13.3482   38.0825 C.ar        1 RX4      -0.0687
      4 CAO        29.8229  -13.0397   38.8343 C.ar        1 RX4      -0.0686
      5 CAQ        30.4717  -11.8077   38.6561 C.ar        1 RX4      -0.0602
      6 CBC        29.9665  -10.8528   37.7437 C.ar        1 RX4      -0.0393
      7 CAS        30.6561   -9.5480   37.5336 C.3         1 RX4       0.0205
      8 CBG        29.9083   -8.3150   38.1355 C.3         1 RX4       0.1158
      9 NAW        30.4229   -7.1280   37.5075 N.am        1 RX4      -0.2644
     10 CBB        29.7462   -6.0195   37.2222 C.2         1 RX4       0.2049
     11 OAI        28.5442   -5.9578   37.4591 O.2         1 RX4      -0.3944
     12 CBF        30.4506   -4.8717   36.6500 C.3         1 RX4       0.1421
     13 CAR        31.5199   -4.3062   37.6362 C.3         1 RX4       0.0406
     14 CAZ        32.3075   -3.1530   37.1467 C.2         1 RX4       0.0393
     15 OAK        32.2433   -2.7221   35.8685 O.co2       1 RX4      -0.5688
     16 OAG        33.1638   -2.5324   37.9873 O.co2       1 RX4      -0.5688
     17 NAU        29.5400   -3.8120   36.2989 N.am        1 RX4      -0.2643
     18 CAX        28.9162   -3.6529   35.1415 C.2         1 RX4       0.1752
     19 CAA        27.9671   -2.5740   35.0092 C.3         1 RX4       0.0258
     20 OAE        29.0986   -4.4121   34.1963 O.2         1 RX4      -0.3972
     21 P1         29.9936   -8.1623   39.8150 P.3         1 RX4       0.0153
     22 O4         30.4134   -6.8333   40.1892 O.co2       1 RX4      -0.6174
     23 O3         30.9709   -9.0338   40.4172 O.co2       1 RX4      -0.6174
     24 CAT        28.5224   -8.4451   40.5640 C.3         1 RX4       0.0350
     25 CBD        28.4268   -8.0280   42.0899 C.3         1 RX4       0.0618
     26 CAB        27.3619   -6.8950   42.2487 C.3         1 RX4      -0.0438
     27 CBA        28.2355   -9.1571   43.0173 C.2         1 RX4       0.1825
     28 OAH        28.7831  -10.2203   42.7570 O.2         1 RX4      -0.3966
     29 N          27.7056   -8.9910   44.2288 N.am        1 RX4      -0.2656
     30 CA         27.5102   -9.9778   45.2564 C.3         1 RX4       0.1278
     31 CB         27.4398   -9.2385   46.6237 C.3         1 RX4      -0.0244
     32 C          26.3344  -10.7901   44.9539 C.2         1 RX4       0.1989
     33 O          25.3386  -10.7857   45.6654 O.2         1 RX4      -0.3947
     34 NAD        26.3052  -11.5655   43.8913 N.am        1 RX4      -0.2990
     35 H1         28.4183  -10.5025   36.3287 H           1 RX4       0.0557
     36 H2         27.3282  -12.6349   36.6220 H           1 RX4       0.0599
     37 H3         28.2061  -14.2483   38.2099 H           1 RX4       0.0559
     38 H4         30.1886  -13.7177   39.5118 H           1 RX4       0.0599
     39 H5         31.3138  -11.6087   39.1996 H           1 RX4       0.0557
     40 H6         30.7646   -9.4150   36.4538 H           1 RX4       0.0465
     41 H7         31.6747   -9.5769   37.9250 H           1 RX4       0.0465
     42 H8         28.8566   -8.4216   37.8551 H           1 RX4       0.0788
     43 H9         31.3755   -7.1174   37.3272 H           1 RX4       0.1872
     44 H10        30.9725   -5.2215   35.7511 H           1 RX4       0.0819
     45 H11        32.2344   -5.0885   37.8957 H           1 RX4       0.0478
     46 H12        31.0208   -4.0038   38.5595 H           1 RX4       0.0478
     47 H13        29.3356   -3.1694   37.0012 H           1 RX4       0.1884
     48 H14        27.5517   -2.5219   34.0003 H           1 RX4       0.0467
     49 H15        28.4516   -1.6210   35.2350 H           1 RX4       0.0467
     50 H16        27.1452   -2.7299   35.7104 H           1 RX4       0.0467
     51 H17        28.2831   -9.5034   40.4275 H           1 RX4       0.0493
     52 H18        27.7707   -7.9123   39.9733 H           1 RX4       0.0493
     53 H19        29.3691   -7.5763   42.4123 H           1 RX4       0.0551
     54 H20        27.3917   -6.4605   43.2486 H           1 RX4       0.0257
     55 H21        26.3570   -7.2829   42.0593 H           1 RX4       0.0257
     56 H22        27.5607   -6.0871   41.5381 H           1 RX4       0.0257
     57 H23        27.4227   -8.0928   44.4535 H           1 RX4       0.1883
     58 H24        28.3809  -10.6388   45.3078 H           1 RX4       0.0797
     59 H25        27.3291   -9.9558   47.4412 H           1 RX4       0.0277
     60 H26        26.5961   -8.5448   46.6518 H           1 RX4       0.0277
     61 H27        28.3594   -8.6728   46.7919 H           1 RX4       0.0277
     62 H28        25.5048  -12.0679   43.6658 H           1 RX4       0.1815
     63 H29        27.0714  -11.6122   43.2993 H           1 RX4       0.1815
@<TRIPOS>BOND
     1     1     2  ar
     2     1     6  ar
     3     2     3  ar
     4     3     4  ar
     5     4     5  ar
     6     5     6  ar
     7     6     7   1
     8     7     8   1
     9     8     9   1
    10     8    21   1
    11     9    10  am
    12    10    11   2
    13    10    12   1
    14    12    13   1
    15    12    17   1
    16    13    14   1
    17    14    15  ar
    18    14    16  ar
    19    17    18  am
    20    18    19   1
    21    18    20   2
    22    21    22  ar
    23    21    23  ar
    24    21    24   1
    25    24    25   1
    26    25    26   1
    27    25    27   1
    28    27    28   2
    29    27    29  am
    30    29    30   1
    31    30    31   1
    32    30    32   1
    33    32    33   2
    34    32    34  am
    35     1    35   1
    36     2    36   1
    37     3    37   1
    38     4    38   1
    39     5    39   1
    40     7    40   1
    41     7    41   1
    42     8    42   1
    43     9    43   1
    44    12    44   1
    45    13    45   1
    46    13    46   1
    47    17    47   1
    48    19    48   1
    49    19    49   1
    50    19    50   1
    51    24    51   1
    52    24    52   1
    53    25    53   1
    54    26    54   1
    55    26    55   1
    56    26    56   1
    57    29    57   1
    58    30    58   1
    59    31    59   1
    60    31    60   1
    61    31    61   1
    62    34    62   1
    63    34    63   1
@<TRIPOS>SUBSTRUCTURE
     1  RX4      1

