@<TRIPOS>MOLECULE
2x97_ligand_084
    63    63
SMALL
GAST_HUCK
****
This file was generated by PARSER (from files_GN.cpp)

@<TRIPOS>ATOM
      1 CAP        29.1186   -8.8975   41.8045 C.ar        1 RX4      -0.0602
      2 CAN        27.8490   -9.4977   41.8071 C.ar        1 RX4      -0.0686
      3 CAM        27.2897   -9.9402   40.5950 C.ar        1 RX4      -0.0687
      4 CAO        28.0131   -9.8017   39.3945 C.ar        1 RX4      -0.0686
      5 CAQ        29.2805   -9.1882   39.3969 C.ar        1 RX4      -0.0602
      6 CBC        29.8419   -8.7011   40.5974 C.ar        1 RX4      -0.0393
      7 CAS        31.1675   -8.0086   40.5900 C.3         1 RX4       0.0205
      8 CBG        31.1325   -6.4408   40.5894 C.3         1 RX4       0.1158
      9 NAW        30.5317   -5.9689   41.8090 N.am        1 RX4      -0.2644
     10 CBB        31.0730   -5.2396   42.7830 C.2         1 RX4       0.2049
     11 OAI        32.2249   -4.8299   42.7284 O.2         1 RX4      -0.3944
     12 CBF        30.2365   -4.8547   43.9180 C.3         1 RX4       0.1421
     13 CAR        29.9507   -3.3200   43.9007 C.3         1 RX4       0.0406
     14 CAZ        28.6395   -2.9017   44.4511 C.2         1 RX4       0.0393
     15 OAK        27.8060   -3.7588   45.0911 O.co2       1 RX4      -0.5688
     16 OAG        28.2237   -1.6285   44.2624 O.co2       1 RX4      -0.5688
     17 NAU        30.8361   -5.2307   45.1661 N.am        1 RX4      -0.2643
     18 CAX        31.2750   -6.4340   45.5142 C.2         1 RX4       0.1752
     19 CAA        31.8098   -6.6356   46.8388 C.3         1 RX4       0.0258
     20 OAE        31.2700   -7.3709   44.7181 O.2         1 RX4      -0.3972
     21 P1         30.4033   -5.7150   39.2439 P.3         1 RX4       0.0153
     22 O4         29.5341   -4.6434   39.6755 O.co2       1 RX4      -0.6174
     23 O3         29.4985   -6.6326   38.5872 O.co2       1 RX4      -0.6174
     24 CAT        31.5067   -5.1351   38.1217 C.3         1 RX4       0.0350
     25 CBD        31.1540   -3.8305   37.3217 C.3         1 RX4       0.0618
     26 CAB        32.4067   -2.9412   37.0595 C.3         1 RX4      -0.0438
     27 CBA        30.4465   -4.0377   36.0594 C.2         1 RX4       0.1825
     28 OAH        30.9145   -4.8088   35.2268 O.2         1 RX4      -0.3966
     29 N          29.4606   -3.2056   35.7442 N.am        1 RX4      -0.2656
     30 CA         28.8392   -3.0157   34.4592 C.3         1 RX4       0.1278
     31 CB         27.3124   -3.2604   34.5635 C.3         1 RX4      -0.0244
     32 C          29.1309   -1.6653   33.9821 C.2         1 RX4       0.1989
     33 O          29.6578   -1.4922   32.8930 O.2         1 RX4      -0.3947
     34 NAD        28.8342   -0.5985   34.6877 N.am        1 RX4      -0.2990
     35 H1         29.5005   -8.5799   42.6969 H           1 RX4       0.0557
     36 H2         27.3324   -9.6144   42.6810 H           1 RX4       0.0599
     37 H3         26.3592  -10.3699   40.5859 H           1 RX4       0.0559
     38 H4         27.6033  -10.1381   38.5160 H           1 RX4       0.0599
     39 H5         29.7963   -9.1189   38.5195 H           1 RX4       0.0557
     40 H6         31.7610   -8.3311   39.7246 H           1 RX4       0.0465
     41 H7         31.7201   -8.3482   41.4737 H           1 RX4       0.0465
     42 H8         32.1819   -6.1344   40.5766 H           1 RX4       0.0788
     43 H9         29.5996   -6.2040   41.9284 H           1 RX4       0.1872
     44 H10        29.2724   -5.3707   43.8507 H           1 RX4       0.0819
     45 H11        29.9945   -2.9473   42.8704 H           1 RX4       0.0478
     46 H12        30.7289   -2.8080   44.4785 H           1 RX4       0.0478
     47 H13        30.9131   -4.5380   45.8413 H           1 RX4       0.1884
     48 H14        32.3190   -7.6012   46.9294 H           1 RX4       0.0467
     49 H15        30.9983   -6.6058   47.5706 H           1 RX4       0.0467
     50 H16        32.5268   -5.8463   47.0826 H           1 RX4       0.0467
     51 H17        31.7255   -5.9473   37.4303 H           1 RX4       0.0493
     52 H18        32.4282   -4.9487   38.6717 H           1 RX4       0.0493
     53 H19        30.5348   -3.2145   37.9750 H           1 RX4       0.0551
     54 H20        32.1283   -2.0191   36.5380 H           1 RX4       0.0257
     55 H21        33.1525   -3.4639   36.4586 H           1 RX4       0.0257
     56 H22        32.8684   -2.6557   38.0084 H           1 RX4       0.0257
     57 H23        29.1792   -2.6015   36.4537 H           1 RX4       0.1883
     58 H24        29.2215   -3.7386   33.7257 H           1 RX4       0.0797
     59 H25        26.8189   -3.0138   33.6209 H           1 RX4       0.0277
     60 H26        26.8758   -2.6504   35.3530 H           1 RX4       0.0277
     61 H27        27.1175   -4.3102   34.7893 H           1 RX4       0.0277
     62 H28        29.0225    0.2844   34.3363 H           1 RX4       0.1815
     63 H29        28.4332   -0.6910   35.5622 H           1 RX4       0.1815
@<TRIPOS>BOND
     1     1     2  ar
     2     1     6  ar
     3     2     3  ar
     4     3     4  ar
     5     4     5  ar
     6     5     6  ar
     7     6     7   1
     8     7     8   1
     9     8     9   1
    10     8    21   1
    11     9    10  am
    12    10    11   2
    13    10    12   1
    14    12    13   1
    15    12    17   1
    16    13    14   1
    17    14    15  ar
    18    14    16  ar
    19    17    18  am
    20    18    19   1
    21    18    20   2
    22    21    22  ar
    23    21    23  ar
    24    21    24   1
    25    24    25   1
    26    25    26   1
    27    25    27   1
    28    27    28   2
    29    27    29  am
    30    29    30   1
    31    30    31   1
    32    30    32   1
    33    32    33   2
    34    32    34  am
    35     1    35   1
    36     2    36   1
    37     3    37   1
    38     4    38   1
    39     5    39   1
    40     7    40   1
    41     7    41   1
    42     8    42   1
    43     9    43   1
    44    12    44   1
    45    13    45   1
    46    13    46   1
    47    17    47   1
    48    19    48   1
    49    19    49   1
    50    19    50   1
    51    24    51   1
    52    24    52   1
    53    25    53   1
    54    26    54   1
    55    26    55   1
    56    26    56   1
    57    29    57   1
    58    30    58   1
    59    31    59   1
    60    31    60   1
    61    31    61   1
    62    34    62   1
    63    34    63   1
@<TRIPOS>SUBSTRUCTURE
     1  RX4      1

