@<TRIPOS>MOLECULE
2x97_ligand_049
    63    63
SMALL
GAST_HUCK
****
This file was generated by PARSER (from files_GN.cpp)

@<TRIPOS>ATOM
      1 CAP        30.7954   -8.8010   40.1779 C.ar        1 RX4      -0.0602
      2 CAN        30.2826   -9.7228   39.2490 C.ar        1 RX4      -0.0686
      3 CAM        28.9139  -10.0404   39.2588 C.ar        1 RX4      -0.0687
      4 CAO        28.0728   -9.4900   40.2434 C.ar        1 RX4      -0.0686
      5 CAQ        28.5914   -8.5902   41.1911 C.ar        1 RX4      -0.0602
      6 CBC        29.9562   -8.2199   41.1603 C.ar        1 RX4      -0.0393
      7 CAS        30.4871   -7.2179   42.1222 C.3         1 RX4       0.0205
      8 CBG        29.8675   -5.7937   41.9506 C.3         1 RX4       0.1158
      9 NAW        29.5055   -5.4421   40.6031 N.am        1 RX4      -0.2644
     10 CBB        30.2901   -5.3406   39.5355 C.2         1 RX4       0.2049
     11 OAI        31.4617   -5.6898   39.6087 O.2         1 RX4      -0.3944
     12 CBF        29.6784   -5.0251   38.2407 C.3         1 RX4       0.1421
     13 CAR        29.0738   -6.3101   37.5863 C.3         1 RX4       0.0406
     14 CAZ        29.9707   -7.4660   37.4020 C.2         1 RX4       0.0393
     15 OAK        31.2925   -7.4456   37.6997 O.co2       1 RX4      -0.5688
     16 OAG        29.4432   -8.6285   36.9416 O.co2       1 RX4      -0.5688
     17 NAU        30.4023   -4.2588   37.2576 N.am        1 RX4      -0.2643
     18 CAX        31.4454   -3.4421   37.3479 C.2         1 RX4       0.1752
     19 CAA        31.8643   -2.7450   36.1605 C.3         1 RX4       0.0258
     20 OAE        32.0918   -3.2646   38.3834 O.2         1 RX4      -0.3972
     21 P1         30.7341   -4.5421   42.6798 P.3         1 RX4       0.0153
     22 O4         30.6761   -3.3384   41.8862 O.co2       1 RX4      -0.6174
     23 O3         32.1426   -4.8283   42.6551 O.co2       1 RX4      -0.6174
     24 CAT        30.2807   -4.1213   44.2382 C.3         1 RX4       0.0350
     25 CBD        28.7425   -4.2649   44.5721 C.3         1 RX4       0.0618
     26 CAB        28.4866   -5.4751   45.5280 C.3         1 RX4      -0.0438
     27 CBA        28.1662   -3.0054   45.0427 C.2         1 RX4       0.1825
     28 OAH        27.6409   -2.9408   46.1520 O.2         1 RX4      -0.3966
     29 N          28.1203   -1.9579   44.2229 N.am        1 RX4      -0.2656
     30 CA         27.4566   -0.7014   44.4504 C.3         1 RX4       0.1278
     31 CB         27.4185    0.0868   43.1144 C.3         1 RX4      -0.0244
     32 C          26.1506   -0.9188   45.0690 C.2         1 RX4       0.1989
     33 O          26.0940   -1.4307   46.1839 O.2         1 RX4      -0.3947
     34 NAD        25.0022   -0.6664   44.4802 N.am        1 RX4      -0.2990
     35 H1         31.7916   -8.5637   40.1377 H           1 RX4       0.0557
     36 H2         30.9018  -10.1376   38.5466 H           1 RX4       0.0599
     37 H3         28.5345  -10.6779   38.5550 H           1 RX4       0.0559
     38 H4         27.0781   -9.7387   40.2652 H           1 RX4       0.0599
     39 H5         27.9623   -8.2048   41.8987 H           1 RX4       0.0557
     40 H6         31.5706   -7.1541   42.0182 H           1 RX4       0.0465
     41 H7         30.2899   -7.5815   43.1340 H           1 RX4       0.0465
     42 H8         28.9068   -5.8422   42.4568 H           1 RX4       0.0788
     43 H9         28.5636   -5.2504   40.4577 H           1 RX4       0.1872
     44 H10        28.8142   -4.3849   38.4508 H           1 RX4       0.0819
     45 H11        28.6761   -6.0476   36.6022 H           1 RX4       0.0478
     46 H12        28.2285   -6.6453   38.1976 H           1 RX4       0.0478
     47 H13        30.0014   -4.2770   36.3714 H           1 RX4       0.1884
     48 H14        32.7943   -2.1903   36.3219 H           1 RX4       0.0467
     49 H15        31.0858   -2.0343   35.8623 H           1 RX4       0.0467
     50 H16        32.0259   -3.4602   35.3467 H           1 RX4       0.0467
     51 H17        30.6156   -3.0855   44.4002 H           1 RX4       0.0493
     52 H18        30.8828   -4.7374   44.9187 H           1 RX4       0.0493
     53 H19        28.1746   -4.5061   43.6650 H           1 RX4       0.0551
     54 H20        27.4153   -5.5864   45.7165 H           1 RX4       0.0257
     55 H21        28.9920   -5.3279   46.4889 H           1 RX4       0.0257
     56 H22        28.8577   -6.3955   45.0650 H           1 RX4       0.0257
     57 H23        28.5721   -2.0520   43.3674 H           1 RX4       0.1883
     58 H24        28.0587   -0.0969   45.1325 H           1 RX4       0.0797
     59 H25        26.9198    1.0523   43.2399 H           1 RX4       0.0277
     60 H26        26.8936   -0.4752   42.3411 H           1 RX4       0.0277
     61 H27        28.4345    0.2822   42.7555 H           1 RX4       0.0277
     62 H28        24.1722   -0.9286   44.9126 H           1 RX4       0.1815
     63 H29        24.9794   -0.3186   43.5753 H           1 RX4       0.1815
@<TRIPOS>BOND
     1     1     2  ar
     2     1     6  ar
     3     2     3  ar
     4     3     4  ar
     5     4     5  ar
     6     5     6  ar
     7     6     7   1
     8     7     8   1
     9     8     9   1
    10     8    21   1
    11     9    10  am
    12    10    11   2
    13    10    12   1
    14    12    13   1
    15    12    17   1
    16    13    14   1
    17    14    15  ar
    18    14    16  ar
    19    17    18  am
    20    18    19   1
    21    18    20   2
    22    21    22  ar
    23    21    23  ar
    24    21    24   1
    25    24    25   1
    26    25    26   1
    27    25    27   1
    28    27    28   2
    29    27    29  am
    30    29    30   1
    31    30    31   1
    32    30    32   1
    33    32    33   2
    34    32    34  am
    35     1    35   1
    36     2    36   1
    37     3    37   1
    38     4    38   1
    39     5    39   1
    40     7    40   1
    41     7    41   1
    42     8    42   1
    43     9    43   1
    44    12    44   1
    45    13    45   1
    46    13    46   1
    47    17    47   1
    48    19    48   1
    49    19    49   1
    50    19    50   1
    51    24    51   1
    52    24    52   1
    53    25    53   1
    54    26    54   1
    55    26    55   1
    56    26    56   1
    57    29    57   1
    58    30    58   1
    59    31    59   1
    60    31    60   1
    61    31    61   1
    62    34    62   1
    63    34    63   1
@<TRIPOS>SUBSTRUCTURE
     1  RX4      1

