@<TRIPOS>MOLECULE
2x97_ligand_024
    63    63
SMALL
GAST_HUCK
****
This file was generated by PARSER (from files_GN.cpp)

@<TRIPOS>ATOM
      1 CAP        30.6323  -10.0895   38.5687 C.ar        1 RX4      -0.0602
      2 CAN        30.4761  -10.6259   37.2773 C.ar        1 RX4      -0.0686
      3 CAM        29.3902  -10.2282   36.4765 C.ar        1 RX4      -0.0687
      4 CAO        28.4334   -9.3385   36.9928 C.ar        1 RX4      -0.0686
      5 CAQ        28.5807   -8.8151   38.2920 C.ar        1 RX4      -0.0602
      6 CBC        29.7070   -9.1440   39.0858 C.ar        1 RX4      -0.0393
      7 CAS        29.9410   -8.4842   40.4082 C.3         1 RX4       0.0205
      8 CBG        29.7654   -6.9263   40.4190 C.3         1 RX4       0.1158
      9 NAW        30.3772   -6.3645   39.2432 N.am        1 RX4      -0.2644
     10 CBB        29.7852   -5.6589   38.2843 C.2         1 RX4       0.2049
     11 OAI        28.5693   -5.4959   38.3003 O.2         1 RX4      -0.3944
     12 CBF        30.6087   -4.9779   37.2795 C.3         1 RX4       0.1421
     13 CAR        31.8756   -4.3613   37.9554 C.3         1 RX4       0.0406
     14 CAZ        32.4909   -3.1830   37.3170 C.2         1 RX4       0.0393
     15 OAK        33.2861   -2.3881   38.0567 O.co2       1 RX4      -0.5688
     16 OAG        32.3276   -2.8720   36.0064 O.co2       1 RX4      -0.5688
     17 NAU        29.8662   -3.9342   36.6115 N.am        1 RX4      -0.2643
     18 CAX        29.4865   -3.8931   35.3414 C.2         1 RX4       0.1752
     19 CAA        28.7890   -2.7225   34.8568 C.3         1 RX4       0.0258
     20 OAE        29.7159   -4.8131   34.5677 O.2         1 RX4      -0.3972
     21 P1         30.3674   -6.1292   41.7869 P.3         1 RX4       0.0153
     22 O4         31.5397   -5.3586   41.4490 O.co2       1 RX4      -0.6174
     23 O3         30.9297   -7.0473   42.7441 O.co2       1 RX4      -0.6174
     24 CAT        29.3044   -5.0429   42.5074 C.3         1 RX4       0.0350
     25 CBD        28.1796   -5.5458   43.4790 C.3         1 RX4       0.0618
     26 CAB        27.2542   -6.6509   42.8996 C.3         1 RX4      -0.0438
     27 CBA        28.7011   -5.8652   44.8069 C.2         1 RX4       0.1825
     28 OAH        28.4672   -5.0937   45.7354 O.2         1 RX4      -0.3966
     29 N          29.5040   -6.9130   44.9963 N.am        1 RX4      -0.2656
     30 CA         30.3289   -7.1886   46.1441 C.3         1 RX4       0.1278
     31 CB         31.5416   -6.2186   46.1739 C.3         1 RX4      -0.0244
     32 C          29.5588   -7.2743   47.3844 C.2         1 RX4       0.1989
     33 O          29.6889   -6.4598   48.2869 O.2         1 RX4      -0.3947
     34 NAD        28.7446   -8.2840   47.5782 N.am        1 RX4      -0.2990
     35 H1         31.4301  -10.3892   39.1323 H           1 RX4       0.0557
     36 H2         31.1565  -11.2993   36.9174 H           1 RX4       0.0599
     37 H3         29.2897  -10.5962   35.5305 H           1 RX4       0.0559
     38 H4         27.6306   -9.0656   36.4203 H           1 RX4       0.0599
     39 H5         27.8744   -8.1638   38.6418 H           1 RX4       0.0557
     40 H6         30.9513   -8.7218   40.7526 H           1 RX4       0.0465
     41 H7         29.2436   -8.9219   41.1274 H           1 RX4       0.0465
     42 H8         28.6885   -6.7475   40.4102 H           1 RX4       0.0788
     43 H9         31.3428   -6.4538   39.1899 H           1 RX4       0.1872
     44 H10        30.9525   -5.7294   36.5608 H           1 RX4       0.0819
     45 H11        32.6620   -5.1242   37.9920 H           1 RX4       0.0478
     46 H12        31.6424   -4.0870   38.9887 H           1 RX4       0.0478
     47 H13        29.6209   -3.1782   37.1650 H           1 RX4       0.1884
     48 H14        28.5538   -2.8080   33.7945 H           1 RX4       0.0467
     49 H15        29.4126   -1.8347   34.9994 H           1 RX4       0.0467
     50 H16        27.8581   -2.5902   35.4057 H           1 RX4       0.0467
     51 H17        28.8268   -4.4871   41.6949 H           1 RX4       0.0493
     52 H18        29.9023   -4.3043   43.0565 H           1 RX4       0.0493
     53 H19        27.5185   -4.6770   43.6040 H           1 RX4       0.0551
     54 H20        26.4355   -6.8568   43.5923 H           1 RX4       0.0257
     55 H21        27.8062   -7.5735   42.7327 H           1 RX4       0.0257
     56 H22        26.8266   -6.3217   41.9549 H           1 RX4       0.0257
     57 H23        29.6161   -7.5120   44.2488 H           1 RX4       0.1883
     58 H24        30.7559   -8.1865   45.9801 H           1 RX4       0.0797
     59 H25        32.2319   -6.4835   46.9800 H           1 RX4       0.0277
     60 H26        31.2152   -5.1859   46.3268 H           1 RX4       0.0277
     61 H27        32.0907   -6.2640   45.2263 H           1 RX4       0.0277
     62 H28        28.3042   -8.3944   48.4305 H           1 RX4       0.1815
     63 H29        28.6302   -8.9562   46.8906 H           1 RX4       0.1815
@<TRIPOS>BOND
     1     1     2  ar
     2     1     6  ar
     3     2     3  ar
     4     3     4  ar
     5     4     5  ar
     6     5     6  ar
     7     6     7   1
     8     7     8   1
     9     8     9   1
    10     8    21   1
    11     9    10  am
    12    10    11   2
    13    10    12   1
    14    12    13   1
    15    12    17   1
    16    13    14   1
    17    14    15  ar
    18    14    16  ar
    19    17    18  am
    20    18    19   1
    21    18    20   2
    22    21    22  ar
    23    21    23  ar
    24    21    24   1
    25    24    25   1
    26    25    26   1
    27    25    27   1
    28    27    28   2
    29    27    29  am
    30    29    30   1
    31    30    31   1
    32    30    32   1
    33    32    33   2
    34    32    34  am
    35     1    35   1
    36     2    36   1
    37     3    37   1
    38     4    38   1
    39     5    39   1
    40     7    40   1
    41     7    41   1
    42     8    42   1
    43     9    43   1
    44    12    44   1
    45    13    45   1
    46    13    46   1
    47    17    47   1
    48    19    48   1
    49    19    49   1
    50    19    50   1
    51    24    51   1
    52    24    52   1
    53    25    53   1
    54    26    54   1
    55    26    55   1
    56    26    56   1
    57    29    57   1
    58    30    58   1
    59    31    59   1
    60    31    60   1
    61    31    61   1
    62    34    62   1
    63    34    63   1
@<TRIPOS>SUBSTRUCTURE
     1  RX4      1

