@<TRIPOS>MOLECULE
2x97_ligand_048
    63    63
SMALL
GAST_HUCK
****
This file was generated by PARSER (from files_GN.cpp)

@<TRIPOS>ATOM
      1 CAP        30.9729   -5.6027   43.4106 C.ar        1 RX4      -0.0602
      2 CAN        31.6570   -6.3003   44.4147 C.ar        1 RX4      -0.0686
      3 CAM        31.6453   -7.7055   44.4359 C.ar        1 RX4      -0.0687
      4 CAO        30.9660   -8.4116   43.4246 C.ar        1 RX4      -0.0686
      5 CAQ        30.2827   -7.7122   42.4128 C.ar        1 RX4      -0.0602
      6 CBC        30.2526   -6.2933   42.4015 C.ar        1 RX4      -0.0393
      7 CAS        29.5727   -5.5600   41.2912 C.3         1 RX4       0.0205
      8 CBG        28.0508   -5.8550   41.0968 C.3         1 RX4       0.1158
      9 NAW        27.6676   -5.3692   39.7921 N.am        1 RX4      -0.2644
     10 CBB        27.1080   -6.0787   38.8114 C.2         1 RX4       0.2049
     11 OAI        26.7397   -7.2302   39.0227 O.2         1 RX4      -0.3944
     12 CBF        26.8968   -5.5652   37.4579 C.3         1 RX4       0.1421
     13 CAR        27.6901   -4.2721   37.0915 C.3         1 RX4       0.0406
     14 CAZ        27.6555   -3.9720   35.6502 C.2         1 RX4       0.0393
     15 OAK        27.1194   -2.8195   35.1859 O.co2       1 RX4      -0.5688
     16 OAG        28.2116   -4.8212   34.7546 O.co2       1 RX4      -0.5688
     17 NAU        25.4903   -5.3453   37.2383 N.am        1 RX4      -0.2643
     18 CAX        24.6008   -6.2411   36.8304 C.2         1 RX4       0.1752
     19 CAA        23.2249   -5.8356   36.6570 C.3         1 RX4       0.0258
     20 OAE        24.9152   -7.4002   36.5897 O.2         1 RX4      -0.3972
     21 P1         27.0097   -5.2604   42.2719 P.3         1 RX4       0.0153
     22 O4         27.0327   -6.0959   43.4539 O.co2       1 RX4      -0.6174
     23 O3         25.7057   -5.5998   41.7362 O.co2       1 RX4      -0.6174
     24 CAT        26.8973   -3.6226   42.6385 C.3         1 RX4       0.0350
     25 CBD        27.6278   -3.1109   43.9443 C.3         1 RX4       0.0618
     26 CAB        28.9514   -2.3502   43.6391 C.3         1 RX4      -0.0438
     27 CBA        26.7810   -2.2511   44.7876 C.2         1 RX4       0.1825
     28 OAH        26.7048   -2.5047   45.9827 O.2         1 RX4      -0.3966
     29 N          26.1715   -1.1967   44.2507 N.am        1 RX4      -0.2656
     30 CA         25.3349   -0.1753   44.8223 C.3         1 RX4       0.1278
     31 CB         24.9777   -0.2783   46.3336 C.3         1 RX4      -0.0244
     32 C          25.8983    1.1217   44.4547 C.2         1 RX4       0.1989
     33 O          26.3693    1.8981   45.2737 O.2         1 RX4      -0.3947
     34 NAD        25.9068    1.5101   43.1998 N.am        1 RX4      -0.2990
     35 H1         31.0159   -4.5803   43.4060 H           1 RX4       0.0557
     36 H2         32.1794   -5.7833   45.1325 H           1 RX4       0.0599
     37 H3         32.1462   -8.2122   45.1633 H           1 RX4       0.0559
     38 H4         30.9734   -9.4326   43.4207 H           1 RX4       0.0599
     39 H5         29.8178   -8.2476   41.6763 H           1 RX4       0.0557
     40 H6         30.0979   -5.8435   40.3733 H           1 RX4       0.0465
     41 H7         29.7071   -4.4756   41.4112 H           1 RX4       0.0465
     42 H8         27.9367   -6.9437   41.1286 H           1 RX4       0.0788
     43 H9         27.8927   -4.4457   39.5994 H           1 RX4       0.1872
     44 H10        27.2624   -6.3383   36.7732 H           1 RX4       0.0819
     45 H11        28.7381   -4.3922   37.3800 H           1 RX4       0.0478
     46 H12        27.2863   -3.4247   37.6523 H           1 RX4       0.0478
     47 H13        25.1607   -4.4428   37.3854 H           1 RX4       0.1884
     48 H14        22.5954   -6.6747   36.3546 H           1 RX4       0.0467
     49 H15        23.1638   -5.0635   35.8897 H           1 RX4       0.0467
     50 H16        22.8357   -5.4379   37.5944 H           1 RX4       0.0467
     51 H17        25.8292   -3.3945   42.7262 H           1 RX4       0.0493
     52 H18        27.2454   -3.0676   41.7643 H           1 RX4       0.0493
     53 H19        27.9248   -3.9842   44.5439 H           1 RX4       0.0551
     54 H20        29.5164   -2.1957   44.5665 H           1 RX4       0.0257
     55 H21        28.7513   -1.3716   43.1794 H           1 RX4       0.0257
     56 H22        29.5733   -2.9357   42.9546 H           1 RX4       0.0257
     57 H23        26.2768   -1.1175   43.2898 H           1 RX4       0.1883
     58 H24        24.3777   -0.2599   44.3055 H           1 RX4       0.0797
     59 H25        24.3033    0.5299   46.6213 H           1 RX4       0.0277
     60 H26        25.8743   -0.2175   46.9529 H           1 RX4       0.0277
     61 H27        24.4724   -1.2239   46.5273 H           1 RX4       0.0277
     62 H28        26.2718    2.3781   42.9547 H           1 RX4       0.1815
     63 H29        25.5454    0.9279   42.5118 H           1 RX4       0.1815
@<TRIPOS>BOND
     1     1     2  ar
     2     1     6  ar
     3     2     3  ar
     4     3     4  ar
     5     4     5  ar
     6     5     6  ar
     7     6     7   1
     8     7     8   1
     9     8     9   1
    10     8    21   1
    11     9    10  am
    12    10    11   2
    13    10    12   1
    14    12    13   1
    15    12    17   1
    16    13    14   1
    17    14    15  ar
    18    14    16  ar
    19    17    18  am
    20    18    19   1
    21    18    20   2
    22    21    22  ar
    23    21    23  ar
    24    21    24   1
    25    24    25   1
    26    25    26   1
    27    25    27   1
    28    27    28   2
    29    27    29  am
    30    29    30   1
    31    30    31   1
    32    30    32   1
    33    32    33   2
    34    32    34  am
    35     1    35   1
    36     2    36   1
    37     3    37   1
    38     4    38   1
    39     5    39   1
    40     7    40   1
    41     7    41   1
    42     8    42   1
    43     9    43   1
    44    12    44   1
    45    13    45   1
    46    13    46   1
    47    17    47   1
    48    19    48   1
    49    19    49   1
    50    19    50   1
    51    24    51   1
    52    24    52   1
    53    25    53   1
    54    26    54   1
    55    26    55   1
    56    26    56   1
    57    29    57   1
    58    30    58   1
    59    31    59   1
    60    31    60   1
    61    31    61   1
    62    34    62   1
    63    34    63   1
@<TRIPOS>SUBSTRUCTURE
     1  RX4      1

