@<TRIPOS>MOLECULE
2x97_ligand_027
    63    63
SMALL
GAST_HUCK
****
This file was generated by PARSER (from files_GN.cpp)

@<TRIPOS>ATOM
      1 CAP        27.6617   -9.9700   42.8901 C.ar        1 RX4      -0.0602
      2 CAN        26.8910  -10.8778   43.6438 C.ar        1 RX4      -0.0686
      3 CAM        26.0140  -10.4038   44.6361 C.ar        1 RX4      -0.0687
      4 CAO        25.8976   -9.0209   44.8630 C.ar        1 RX4      -0.0686
      5 CAQ        26.6693   -8.1142   44.1102 C.ar        1 RX4      -0.0602
      6 CBC        27.5696   -8.5759   43.1174 C.ar        1 RX4      -0.0393
      7 CAS        28.4088   -7.6056   42.3581 C.3         1 RX4       0.0205
      8 CBG        27.6101   -6.7878   41.2795 C.3         1 RX4       0.1158
      9 NAW        27.9919   -7.2532   39.9602 N.am        1 RX4      -0.2644
     10 CBB        27.1968   -7.5505   38.9384 C.2         1 RX4       0.2049
     11 OAI        25.9807   -7.4430   39.0541 O.2         1 RX4      -0.3944
     12 CBF        27.7490   -7.9813   37.6438 C.3         1 RX4       0.1421
     13 CAR        28.4308   -9.3881   37.7406 C.3         1 RX4       0.0406
     14 CAZ        27.5142  -10.5479   37.7555 C.2         1 RX4       0.0393
     15 OAK        27.9233  -11.7321   37.2388 O.co2       1 RX4      -0.5688
     16 OAG        26.2632  -10.4828   38.2663 O.co2       1 RX4      -0.5688
     17 NAU        28.6638   -7.0975   36.9611 N.am        1 RX4      -0.2643
     18 CAX        28.9776   -5.8212   37.1521 C.2         1 RX4       0.1752
     19 CAA        29.9374   -5.2207   36.2474 C.3         1 RX4       0.0258
     20 OAE        28.4583   -5.1342   38.0265 O.2         1 RX4      -0.3972
     21 P1         27.8501   -5.1283   41.3293 P.3         1 RX4       0.0153
     22 O4         27.0710   -4.5990   40.2365 O.co2       1 RX4      -0.6174
     23 O3         29.2048   -4.8091   40.9543 O.co2       1 RX4      -0.6174
     24 CAT        27.3407   -4.2091   42.6355 C.3         1 RX4       0.0350
     25 CBD        28.2450   -4.0213   43.9057 C.3         1 RX4       0.0618
     26 CAB        29.7336   -3.6726   43.6124 C.3         1 RX4      -0.0438
     27 CBA        27.6819   -2.9881   44.7816 C.2         1 RX4       0.1825
     28 OAH        27.3078   -3.2666   45.9178 O.2         1 RX4      -0.3966
     29 N          27.6144   -1.7333   44.3391 N.am        1 RX4      -0.2656
     30 CA         27.0991   -0.5848   45.0241 C.3         1 RX4       0.1278
     31 CB         27.2849    0.6664   44.1179 C.3         1 RX4      -0.0244
     32 C          25.7214   -0.8017   45.4322 C.2         1 RX4       0.1989
     33 O          25.4842   -1.3719   46.4886 O.2         1 RX4      -0.3947
     34 NAD        24.7023   -0.5477   44.6373 N.am        1 RX4      -0.2990
     35 H1         28.2908  -10.3383   42.1731 H           1 RX4       0.0557
     36 H2         26.9674  -11.8837   43.4741 H           1 RX4       0.0599
     37 H3         25.4567  -11.0605   45.1847 H           1 RX4       0.0559
     38 H4         25.2538   -8.6773   45.5805 H           1 RX4       0.0599
     39 H5         26.5779   -7.1138   44.3016 H           1 RX4       0.0557
     40 H6         29.2381   -8.1375   41.8820 H           1 RX4       0.0465
     41 H7         28.8901   -6.9583   43.0919 H           1 RX4       0.0465
     42 H8         26.5374   -6.9338   41.4450 H           1 RX4       0.0788
     43 H9         28.9473   -7.2906   39.7854 H           1 RX4       0.1872
     44 H10        26.9204   -8.0950   36.9372 H           1 RX4       0.0819
     45 H11        29.0786   -9.4418   38.6215 H           1 RX4       0.0478
     46 H12        29.0720   -9.5222   36.8626 H           1 RX4       0.0478
     47 H13        29.0525   -7.4801   36.1543 H           1 RX4       0.1884
     48 H14        30.1382   -4.1792   36.5181 H           1 RX4       0.0467
     49 H15        29.5457   -5.2480   35.2231 H           1 RX4       0.0467
     50 H16        30.8825   -5.7766   36.2874 H           1 RX4       0.0467
     51 H17        26.3819   -4.6194   42.9611 H           1 RX4       0.0493
     52 H18        27.1342   -3.2176   42.2240 H           1 RX4       0.0493
     53 H19        28.2425   -4.9651   44.4553 H           1 RX4       0.0551
     54 H20        30.2627   -3.4205   44.5359 H           1 RX4       0.0257
     55 H21        29.8003   -2.8230   42.9292 H           1 RX4       0.0257
     56 H22        30.2443   -4.5254   43.1630 H           1 RX4       0.0257
     57 H23        27.9633   -1.5751   43.4441 H           1 RX4       0.1883
     58 H24        27.7136   -0.4104   45.9171 H           1 RX4       0.0797
     59 H25        26.8858    1.5619   44.6025 H           1 RX4       0.0277
     60 H26        26.7778    0.5312   43.1557 H           1 RX4       0.0277
     61 H27        28.3499    0.8248   43.9234 H           1 RX4       0.0277
     62 H28        23.8107   -0.8102   44.9071 H           1 RX4       0.1815
     63 H29        24.8483   -0.1722   43.7545 H           1 RX4       0.1815
@<TRIPOS>BOND
     1     1     2  ar
     2     1     6  ar
     3     2     3  ar
     4     3     4  ar
     5     4     5  ar
     6     5     6  ar
     7     6     7   1
     8     7     8   1
     9     8     9   1
    10     8    21   1
    11     9    10  am
    12    10    11   2
    13    10    12   1
    14    12    13   1
    15    12    17   1
    16    13    14   1
    17    14    15  ar
    18    14    16  ar
    19    17    18  am
    20    18    19   1
    21    18    20   2
    22    21    22  ar
    23    21    23  ar
    24    21    24   1
    25    24    25   1
    26    25    26   1
    27    25    27   1
    28    27    28   2
    29    27    29  am
    30    29    30   1
    31    30    31   1
    32    30    32   1
    33    32    33   2
    34    32    34  am
    35     1    35   1
    36     2    36   1
    37     3    37   1
    38     4    38   1
    39     5    39   1
    40     7    40   1
    41     7    41   1
    42     8    42   1
    43     9    43   1
    44    12    44   1
    45    13    45   1
    46    13    46   1
    47    17    47   1
    48    19    48   1
    49    19    49   1
    50    19    50   1
    51    24    51   1
    52    24    52   1
    53    25    53   1
    54    26    54   1
    55    26    55   1
    56    26    56   1
    57    29    57   1
    58    30    58   1
    59    31    59   1
    60    31    60   1
    61    31    61   1
    62    34    62   1
    63    34    63   1
@<TRIPOS>SUBSTRUCTURE
     1  RX4      1

