@<TRIPOS>MOLECULE
2x97_ligand_061
    63    63
SMALL
GAST_HUCK
****
This file was generated by PARSER (from files_GN.cpp)

@<TRIPOS>ATOM
      1 CAP        32.2440   -3.8014   37.4110 C.ar        1 RX4      -0.0602
      2 CAN        32.1371   -2.8602   36.3673 C.ar        1 RX4      -0.0686
      3 CAM        30.8885   -2.6014   35.7704 C.ar        1 RX4      -0.0687
      4 CAO        29.7430   -3.2762   36.2256 C.ar        1 RX4      -0.0686
      5 CAQ        29.8450   -4.2033   37.2799 C.ar        1 RX4      -0.0602
      6 CBC        31.0940   -4.4847   37.8871 C.ar        1 RX4      -0.0393
      7 CAS        31.1679   -5.4105   39.0545 C.3         1 RX4       0.0205
      8 CBG        30.8909   -6.9169   38.7450 C.3         1 RX4       0.1158
      9 NAW        29.7334   -7.1445   37.9238 N.am        1 RX4      -0.2644
     10 CBB        28.4679   -6.8391   38.2000 C.2         1 RX4       0.2049
     11 OAI        28.2179   -6.1585   39.1843 O.2         1 RX4      -0.3944
     12 CBF        27.3986   -7.1144   37.2332 C.3         1 RX4       0.1421
     13 CAR        25.9729   -7.2410   37.8657 C.3         1 RX4       0.0406
     14 CAZ        25.4063   -6.0285   38.5053 C.2         1 RX4       0.0393
     15 OAK        26.0337   -4.8291   38.5270 O.co2       1 RX4      -0.5688
     16 OAG        24.1821   -6.1054   39.0743 O.co2       1 RX4      -0.5688
     17 NAU        27.6831   -8.2524   36.3874 N.am        1 RX4      -0.2643
     18 CAX        27.9898   -9.4941   36.7442 C.2         1 RX4       0.1752
     19 CAA        28.3567  -10.4469   35.7181 C.3         1 RX4       0.0258
     20 OAE        28.0122   -9.8311   37.9205 O.2         1 RX4      -0.3972
     21 P1         30.9475   -7.9408   40.1025 P.3         1 RX4       0.0153
     22 O4         32.2645   -8.5304   40.0365 O.co2       1 RX4      -0.6174
     23 O3         30.1900   -9.1456   39.8584 O.co2       1 RX4      -0.6174
     24 CAT        30.7602   -7.3406   41.6706 C.3         1 RX4       0.0350
     25 CBD        29.4440   -7.4960   42.5430 C.3         1 RX4       0.0618
     26 CAB        28.0985   -7.8327   41.8217 C.3         1 RX4      -0.0438
     27 CBA        29.5858   -8.3672   43.7173 C.2         1 RX4       0.1825
     28 OAH        28.9657   -8.0801   44.7389 O.2         1 RX4      -0.3966
     29 N          30.2908   -9.4909   43.6455 N.am        1 RX4      -0.2656
     30 CA         30.4146  -10.5419   44.6289 C.3         1 RX4       0.1278
     31 CB         30.9136  -10.0528   46.0217 C.3         1 RX4      -0.0244
     32 C          29.1914  -11.3340   44.7157 C.2         1 RX4       0.1989
     33 O          28.2301  -10.9391   45.3583 O.2         1 RX4      -0.3947
     34 NAD        29.0628  -12.4850   44.0875 N.am        1 RX4      -0.2990
     35 H1         33.1633   -3.9867   37.8206 H           1 RX4       0.0557
     36 H2         32.9678   -2.3701   36.0349 H           1 RX4       0.0599
     37 H3         30.8091   -1.9287   35.0077 H           1 RX4       0.0559
     38 H4         28.8340   -3.0797   35.8000 H           1 RX4       0.0599
     39 H5         28.9871   -4.6359   37.6275 H           1 RX4       0.0557
     40 H6         30.4724   -5.0362   39.8097 H           1 RX4       0.0465
     41 H7         32.1612   -5.3328   39.5093 H           1 RX4       0.0465
     42 H8         31.7160   -7.2227   38.0950 H           1 RX4       0.0788
     43 H9         29.9065   -7.5563   37.0507 H           1 RX4       0.1872
     44 H10        27.3826   -6.2548   36.5528 H           1 RX4       0.0819
     45 H11        25.9866   -8.0353   38.6177 H           1 RX4       0.0478
     46 H12        25.2629   -7.5386   37.0878 H           1 RX4       0.0478
     47 H13        27.6912   -8.0715   35.4351 H           1 RX4       0.1884
     48 H14        28.5016  -11.4455   36.1372 H           1 RX4       0.0467
     49 H15        29.2878  -10.1297   35.2407 H           1 RX4       0.0467
     50 H16        27.5711  -10.5006   34.9609 H           1 RX4       0.0467
     51 H17        30.9952   -6.2724   41.6189 H           1 RX4       0.0493
     52 H18        31.5862   -7.7603   42.2596 H           1 RX4       0.0493
     53 H19        29.2749   -6.4890   42.9525 H           1 RX4       0.0551
     54 H20        27.2782   -7.9205   42.5502 H           1 RX4       0.0257
     55 H21        28.1611   -8.7813   41.2800 H           1 RX4       0.0257
     56 H22        27.8413   -7.0278   41.1264 H           1 RX4       0.0257
     57 H23        30.7651   -9.6311   42.8131 H           1 RX4       0.1883
     58 H24        31.2139  -11.1852   44.2455 H           1 RX4       0.0797
     59 H25        31.1114  -10.9139   46.6667 H           1 RX4       0.0277
     60 H26        30.1685   -9.4221   46.5119 H           1 RX4       0.0277
     61 H27        31.8407   -9.4823   45.9118 H           1 RX4       0.0277
     62 H28        28.2334  -12.9844   44.1739 H           1 RX4       0.1815
     63 H29        29.7826  -12.8225   43.5226 H           1 RX4       0.1815
@<TRIPOS>BOND
     1     1     2  ar
     2     1     6  ar
     3     2     3  ar
     4     3     4  ar
     5     4     5  ar
     6     5     6  ar
     7     6     7   1
     8     7     8   1
     9     8     9   1
    10     8    21   1
    11     9    10  am
    12    10    11   2
    13    10    12   1
    14    12    13   1
    15    12    17   1
    16    13    14   1
    17    14    15  ar
    18    14    16  ar
    19    17    18  am
    20    18    19   1
    21    18    20   2
    22    21    22  ar
    23    21    23  ar
    24    21    24   1
    25    24    25   1
    26    25    26   1
    27    25    27   1
    28    27    28   2
    29    27    29  am
    30    29    30   1
    31    30    31   1
    32    30    32   1
    33    32    33   2
    34    32    34  am
    35     1    35   1
    36     2    36   1
    37     3    37   1
    38     4    38   1
    39     5    39   1
    40     7    40   1
    41     7    41   1
    42     8    42   1
    43     9    43   1
    44    12    44   1
    45    13    45   1
    46    13    46   1
    47    17    47   1
    48    19    48   1
    49    19    49   1
    50    19    50   1
    51    24    51   1
    52    24    52   1
    53    25    53   1
    54    26    54   1
    55    26    55   1
    56    26    56   1
    57    29    57   1
    58    30    58   1
    59    31    59   1
    60    31    60   1
    61    31    61   1
    62    34    62   1
    63    34    63   1
@<TRIPOS>SUBSTRUCTURE
     1  RX4      1

