@<TRIPOS>MOLECULE
2x97_ligand_075
    63    63
SMALL
GAST_HUCK
****
This file was generated by PARSER (from files_GN.cpp)

@<TRIPOS>ATOM
      1 CAP        28.1930  -11.5286   43.8576 C.ar        1 RX4      -0.0602
      2 CAN        27.9271  -12.4880   44.8533 C.ar        1 RX4      -0.0686
      3 CAM        26.8775  -12.2773   45.7719 C.ar        1 RX4      -0.0687
      4 CAO        26.0604  -11.1378   45.6516 C.ar        1 RX4      -0.0686
      5 CAQ        26.3185  -10.1866   44.6466 C.ar        1 RX4      -0.0602
      6 CBC        27.3926  -10.3706   43.7336 C.ar        1 RX4      -0.0393
      7 CAS        27.6498   -9.3684   42.6536 C.3         1 RX4       0.0205
      8 CBG        29.0361   -8.6426   42.7450 C.3         1 RX4       0.1158
      9 NAW        29.4960   -8.4672   44.0955 N.am        1 RX4      -0.2644
     10 CBB        29.2889   -7.4824   44.9606 C.2         1 RX4       0.2049
     11 OAI        28.5824   -6.5046   44.6898 O.2         1 RX4      -0.3944
     12 CBF        29.9004   -7.5773   46.2901 C.3         1 RX4       0.1421
     13 CAR        31.4458   -7.2635   46.3283 C.3         1 RX4       0.0406
     14 CAZ        32.2058   -7.3271   45.0535 C.2         1 RX4       0.0393
     15 OAK        32.2682   -6.2210   44.2613 O.co2       1 RX4      -0.5688
     16 OAG        32.7093   -8.5005   44.5748 O.co2       1 RX4      -0.5688
     17 NAU        29.5978   -8.8412   46.9090 N.am        1 RX4      -0.2643
     18 CAX        28.3789   -9.3307   47.1232 C.2         1 RX4       0.1752
     19 CAA        28.2505  -10.5830   47.8350 C.3         1 RX4       0.0258
     20 OAE        27.3672   -8.7200   46.7857 O.2         1 RX4      -0.3972
     21 P1         29.1795   -7.2526   41.7858 P.3         1 RX4       0.0153
     22 O4         29.4154   -7.6329   40.4090 O.co2       1 RX4      -0.6174
     23 O3         30.3710   -6.5209   42.1356 O.co2       1 RX4      -0.6174
     24 CAT        27.8106   -6.2834   41.7715 C.3         1 RX4       0.0350
     25 CBD        27.9874   -4.7640   41.4576 C.3         1 RX4       0.0618
     26 CAB        26.7731   -4.2594   40.6185 C.3         1 RX4      -0.0438
     27 CBA        28.2194   -3.9819   42.6772 C.2         1 RX4       0.1825
     28 OAH        29.1652   -4.2946   43.3965 O.2         1 RX4      -0.3966
     29 N          27.4543   -2.9399   43.0349 N.am        1 RX4      -0.2656
     30 CA         27.6460   -2.0697   44.1653 C.3         1 RX4       0.1278
     31 CB         28.1898   -0.7109   43.6564 C.3         1 RX4      -0.0244
     32 C          26.3933   -1.9256   44.9059 C.2         1 RX4       0.1989
     33 O          26.2966   -2.3439   46.0494 O.2         1 RX4      -0.3947
     34 NAD        25.3189   -1.3790   44.3750 N.am        1 RX4      -0.2990
     35 H1         28.9555  -11.6998   43.2097 H           1 RX4       0.0557
     36 H2         28.5000  -13.3318   44.9275 H           1 RX4       0.0599
     37 H3         26.6598  -12.9915   46.4792 H           1 RX4       0.0559
     38 H4         25.2799  -10.9967   46.3009 H           1 RX4       0.0599
     39 H5         25.7227   -9.3643   44.5954 H           1 RX4       0.0557
     40 H6         26.8441   -8.6239   42.6690 H           1 RX4       0.0465
     41 H7         27.5919   -9.8657   41.6691 H           1 RX4       0.0465
     42 H8         29.7764   -9.3396   42.3276 H           1 RX4       0.0788
     43 H9         30.0795   -9.1790   44.4130 H           1 RX4       0.1872
     44 H10        29.4341   -6.8126   46.9308 H           1 RX4       0.0819
     45 H11        31.9555   -7.9455   47.0345 H           1 RX4       0.0478
     46 H12        31.5812   -6.2495   46.7403 H           1 RX4       0.0478
     47 H13        30.3633   -9.3765   47.2191 H           1 RX4       0.1884
     48 H14        27.2009  -10.8655   47.9716 H           1 RX4       0.0467
     49 H15        28.7022  -10.4682   48.8236 H           1 RX4       0.0467
     50 H16        28.7763  -11.3789   47.2892 H           1 RX4       0.0467
     51 H17        27.2934   -6.3495   42.7302 H           1 RX4       0.0493
     52 H18        27.1336   -6.7307   41.0380 H           1 RX4       0.0493
     53 H19        28.8577   -4.6143   40.8089 H           1 RX4       0.0551
     54 H20        26.8718   -3.1932   40.3927 H           1 RX4       0.0257
     55 H21        25.8338   -4.4236   41.1666 H           1 RX4       0.0257
     56 H22        26.7191   -4.8033   39.6684 H           1 RX4       0.0257
     57 H23        26.7426   -2.6816   42.4298 H           1 RX4       0.1883
     58 H24        28.3979   -2.4911   44.8454 H           1 RX4       0.0797
     59 H25        28.3833   -0.0356   44.4968 H           1 RX4       0.0277
     60 H26        27.4769   -0.2404   42.9734 H           1 RX4       0.0277
     61 H27        29.1318   -0.8726   43.1213 H           1 RX4       0.0277
     62 H28        24.4818   -1.3831   44.8676 H           1 RX4       0.1815
     63 H29        25.3424   -1.0291   43.4692 H           1 RX4       0.1815
@<TRIPOS>BOND
     1     1     2  ar
     2     1     6  ar
     3     2     3  ar
     4     3     4  ar
     5     4     5  ar
     6     5     6  ar
     7     6     7   1
     8     7     8   1
     9     8     9   1
    10     8    21   1
    11     9    10  am
    12    10    11   2
    13    10    12   1
    14    12    13   1
    15    12    17   1
    16    13    14   1
    17    14    15  ar
    18    14    16  ar
    19    17    18  am
    20    18    19   1
    21    18    20   2
    22    21    22  ar
    23    21    23  ar
    24    21    24   1
    25    24    25   1
    26    25    26   1
    27    25    27   1
    28    27    28   2
    29    27    29  am
    30    29    30   1
    31    30    31   1
    32    30    32   1
    33    32    33   2
    34    32    34  am
    35     1    35   1
    36     2    36   1
    37     3    37   1
    38     4    38   1
    39     5    39   1
    40     7    40   1
    41     7    41   1
    42     8    42   1
    43     9    43   1
    44    12    44   1
    45    13    45   1
    46    13    46   1
    47    17    47   1
    48    19    48   1
    49    19    49   1
    50    19    50   1
    51    24    51   1
    52    24    52   1
    53    25    53   1
    54    26    54   1
    55    26    55   1
    56    26    56   1
    57    29    57   1
    58    30    58   1
    59    31    59   1
    60    31    60   1
    61    31    61   1
    62    34    62   1
    63    34    63   1
@<TRIPOS>SUBSTRUCTURE
     1  RX4      1

