@<TRIPOS>MOLECULE
2x97_ligand_071
    63    63
SMALL
GAST_HUCK
****
This file was generated by PARSER (from files_GN.cpp)

@<TRIPOS>ATOM
      1 CAP        26.9503  -11.3120   43.7436 C.ar        1 RX4      -0.0602
      2 CAN        27.1586  -12.6014   44.2529 C.ar        1 RX4      -0.0686
      3 CAM        28.4572  -13.0370   44.5463 C.ar        1 RX4      -0.0687
      4 CAO        29.5422  -12.1607   44.3738 C.ar        1 RX4      -0.0686
      5 CAQ        29.3325  -10.8550   43.8887 C.ar        1 RX4      -0.0602
      6 CBC        28.0319  -10.4210   43.5162 C.ar        1 RX4      -0.0393
      7 CAS        27.7273   -9.1523   42.7810 C.3         1 RX4       0.0205
      8 CBG        28.8451   -8.0981   42.4510 C.3         1 RX4       0.1158
      9 NAW        28.8773   -7.0573   43.4479 N.am        1 RX4      -0.2644
     10 CBB        29.9168   -6.6590   44.1838 C.2         1 RX4       0.2049
     11 OAI        30.9513   -7.3150   44.2287 O.2         1 RX4      -0.3944
     12 CBF        29.8377   -5.4146   44.9472 C.3         1 RX4       0.1421
     13 CAR        30.9585   -4.3910   44.5750 C.3         1 RX4       0.0406
     14 CAZ        31.2881   -4.3098   43.1343 C.2         1 RX4       0.0393
     15 OAK        32.5253   -4.6922   42.7252 O.co2       1 RX4      -0.5688
     16 OAG        30.2945   -4.2346   42.2103 O.co2       1 RX4      -0.5688
     17 NAU        29.9183   -5.6660   46.3524 N.am        1 RX4      -0.2643
     18 CAX        29.0511   -6.3277   47.0950 C.2         1 RX4       0.1752
     19 CAA        29.3607   -6.5137   48.4935 C.3         1 RX4       0.0258
     20 OAE        28.0149   -6.7933   46.6375 O.2         1 RX4      -0.3972
     21 P1         28.6356   -7.3651   40.9491 P.3         1 RX4       0.0153
     22 O4         29.3226   -6.0944   40.9436 O.co2       1 RX4      -0.6174
     23 O3         27.2482   -7.0230   40.7563 O.co2       1 RX4      -0.6174
     24 CAT        29.1679   -8.3372   39.6788 C.3         1 RX4       0.0350
     25 CBD        30.3343   -7.7544   38.8057 C.3         1 RX4       0.0618
     26 CAB        30.8407   -8.8064   37.7795 C.3         1 RX4      -0.0438
     27 CBA        29.9903   -6.5057   38.1192 C.2         1 RX4       0.1825
     28 OAH        30.6860   -5.5141   38.3210 O.2         1 RX4      -0.3966
     29 N          28.8683   -6.4243   37.4066 N.am        1 RX4      -0.2656
     30 CA         28.2593   -5.2355   36.8781 C.3         1 RX4       0.1278
     31 CB         27.7760   -5.4936   35.4322 C.3         1 RX4      -0.0244
     32 C          27.1645   -4.8410   37.7585 C.2         1 RX4       0.1989
     33 O          27.1725   -3.7477   38.3112 O.2         1 RX4      -0.3947
     34 NAD        26.1503   -5.6391   38.0158 N.am        1 RX4      -0.2990
     35 H1         25.9949  -11.0369   43.5079 H           1 RX4       0.0557
     36 H2         26.3742  -13.2413   44.3716 H           1 RX4       0.0599
     37 H3         28.6196  -13.9897   44.8783 H           1 RX4       0.0559
     38 H4         30.4940  -12.4700   44.5785 H           1 RX4       0.0599
     39 H5         30.1435  -10.2466   43.7660 H           1 RX4       0.0557
     40 H6         26.9250   -8.6355   43.3289 H           1 RX4       0.0465
     41 H7         27.2802   -9.5017   41.8366 H           1 RX4       0.0465
     42 H8         29.8182   -8.6003   42.3864 H           1 RX4       0.0788
     43 H9         28.0718   -6.5137   43.5128 H           1 RX4       0.1872
     44 H10        28.8829   -4.9167   44.7466 H           1 RX4       0.0819
     45 H11        31.8848   -4.6196   45.1270 H           1 RX4       0.0478
     46 H12        30.6481   -3.3825   44.8859 H           1 RX4       0.0478
     47 H13        30.7008   -5.3267   46.8098 H           1 RX4       0.1884
     48 H14        28.5726   -7.0655   49.0173 H           1 RX4       0.0467
     49 H15        29.4836   -5.5373   48.9769 H           1 RX4       0.0467
     50 H16        30.2956   -7.0760   48.5904 H           1 RX4       0.0467
     51 H17        28.3094   -8.5686   39.0410 H           1 RX4       0.0493
     52 H18        29.5120   -9.2856   40.1112 H           1 RX4       0.0493
     53 H19        31.1820   -7.5708   39.4811 H           1 RX4       0.0551
     54 H20        31.7130   -8.4213   37.2430 H           1 RX4       0.0257
     55 H21        30.0638   -9.0574   37.0552 H           1 RX4       0.0257
     56 H22        31.1459   -9.7219   38.2950 H           1 RX4       0.0257
     57 H23        28.3499   -7.2412   37.3234 H           1 RX4       0.1883
     58 H24        28.9904   -4.4182   36.8267 H           1 RX4       0.0797
     59 H25        27.2838   -4.6008   35.0300 H           1 RX4       0.0277
     60 H26        27.0729   -6.3283   35.3934 H           1 RX4       0.0277
     61 H27        28.6319   -5.7291   34.7905 H           1 RX4       0.0277
     62 H28        25.4445   -5.3501   38.6179 H           1 RX4       0.1815
     63 H29        26.1091   -6.5204   37.6182 H           1 RX4       0.1815
@<TRIPOS>BOND
     1     1     2  ar
     2     1     6  ar
     3     2     3  ar
     4     3     4  ar
     5     4     5  ar
     6     5     6  ar
     7     6     7   1
     8     7     8   1
     9     8     9   1
    10     8    21   1
    11     9    10  am
    12    10    11   2
    13    10    12   1
    14    12    13   1
    15    12    17   1
    16    13    14   1
    17    14    15  ar
    18    14    16  ar
    19    17    18  am
    20    18    19   1
    21    18    20   2
    22    21    22  ar
    23    21    23  ar
    24    21    24   1
    25    24    25   1
    26    25    26   1
    27    25    27   1
    28    27    28   2
    29    27    29  am
    30    29    30   1
    31    30    31   1
    32    30    32   1
    33    32    33   2
    34    32    34  am
    35     1    35   1
    36     2    36   1
    37     3    37   1
    38     4    38   1
    39     5    39   1
    40     7    40   1
    41     7    41   1
    42     8    42   1
    43     9    43   1
    44    12    44   1
    45    13    45   1
    46    13    46   1
    47    17    47   1
    48    19    48   1
    49    19    49   1
    50    19    50   1
    51    24    51   1
    52    24    52   1
    53    25    53   1
    54    26    54   1
    55    26    55   1
    56    26    56   1
    57    29    57   1
    58    30    58   1
    59    31    59   1
    60    31    60   1
    61    31    61   1
    62    34    62   1
    63    34    63   1
@<TRIPOS>SUBSTRUCTURE
     1  RX4      1

