@<TRIPOS>MOLECULE
2x97_ligand_079
    63    63
SMALL
GAST_HUCK
****
This file was generated by PARSER (from files_GN.cpp)

@<TRIPOS>ATOM
      1 CAP        26.5313   -2.5207   44.8608 C.ar        1 RX4      -0.0602
      2 CAN        25.8728   -1.2943   44.6390 C.ar        1 RX4      -0.0686
      3 CAM        26.5318   -0.2484   43.9548 C.ar        1 RX4      -0.0687
      4 CAO        27.8512   -0.4376   43.4961 C.ar        1 RX4      -0.0686
      5 CAQ        28.5125   -1.6578   43.7395 C.ar        1 RX4      -0.0602
      6 CBC        27.8675   -2.7193   44.4218 C.ar        1 RX4      -0.0393
      7 CAS        28.6157   -3.9521   44.7957 C.3         1 RX4       0.0205
      8 CBG        29.7825   -4.3663   43.8531 C.3         1 RX4       0.1158
      9 NAW        29.2861   -4.8621   42.5802 N.am        1 RX4      -0.2644
     10 CBB        29.9572   -4.9176   41.4314 C.2         1 RX4       0.2049
     11 OAI        31.1573   -4.6308   41.3993 O.2         1 RX4      -0.3944
     12 CBF        29.3357   -5.4314   40.2240 C.3         1 RX4       0.1421
     13 CAR        27.9088   -4.8360   40.0031 C.3         1 RX4       0.0406
     14 CAZ        26.8011   -5.8112   39.9095 C.2         1 RX4       0.0393
     15 OAK        26.8193   -6.7348   38.9097 O.co2       1 RX4      -0.5688
     16 OAG        25.6336   -5.6373   40.5814 O.co2       1 RX4      -0.5688
     17 NAU        29.3467   -6.8624   40.1686 N.am        1 RX4      -0.2643
     18 CAX        30.3640   -7.6244   39.7976 C.2         1 RX4       0.1752
     19 CAA        30.1349   -9.0451   39.6708 C.3         1 RX4       0.0258
     20 OAE        31.4562   -7.1689   39.4941 O.2         1 RX4      -0.3972
     21 P1         30.8251   -5.5119   44.5033 P.3         1 RX4       0.0153
     22 O4         31.4443   -4.9229   45.6681 O.co2       1 RX4      -0.6174
     23 O3         31.9099   -5.6501   43.5580 O.co2       1 RX4      -0.6174
     24 CAT        30.1356   -6.9812   44.9101 C.3         1 RX4       0.0350
     25 CBD        30.8879   -8.2747   44.4462 C.3         1 RX4       0.0618
     26 CAB        32.2260   -8.5486   45.2013 C.3         1 RX4      -0.0438
     27 CBA        29.9979   -9.4322   44.5590 C.2         1 RX4       0.1825
     28 OAH        29.6566   -9.9846   43.5221 O.2         1 RX4      -0.3966
     29 N          29.5989   -9.8593   45.7518 N.am        1 RX4      -0.2656
     30 CA         28.7822  -10.9663   46.1459 C.3         1 RX4       0.1278
     31 CB         27.8984  -10.5454   47.3443 C.3         1 RX4      -0.0244
     32 C          27.9859  -11.6078   45.1034 C.2         1 RX4       0.1989
     33 O          27.2601  -10.9516   44.3698 O.2         1 RX4      -0.3947
     34 NAD        28.1571  -12.8793   44.7978 N.am        1 RX4      -0.2990
     35 H1         26.0353   -3.2483   45.3857 H           1 RX4       0.0557
     36 H2         24.9230   -1.1429   44.9847 H           1 RX4       0.0599
     37 H3         26.0575    0.6517   43.8115 H           1 RX4       0.0559
     38 H4         28.3359    0.3266   43.0133 H           1 RX4       0.0599
     39 H5         29.4853   -1.7522   43.4392 H           1 RX4       0.0557
     40 H6         27.9152   -4.7911   44.9013 H           1 RX4       0.0465
     41 H7         29.0271   -3.7664   45.7928 H           1 RX4       0.0465
     42 H8         30.3911   -3.4735   43.6900 H           1 RX4       0.0788
     43 H9         28.3665   -5.2036   42.5720 H           1 RX4       0.1872
     44 H10        29.9171   -5.0800   39.3597 H           1 RX4       0.0819
     45 H11        27.8934   -4.2429   39.0745 H           1 RX4       0.0478
     46 H12        27.6520   -4.1248   40.8102 H           1 RX4       0.0478
     47 H13        28.5247   -7.3285   40.3743 H           1 RX4       0.1884
     48 H14        31.0369   -9.5892   39.3552 H           1 RX4       0.0467
     49 H15        29.3547   -9.2299   38.9222 H           1 RX4       0.0467
     50 H16        29.8046   -9.4591   40.6309 H           1 RX4       0.0467
     51 H17        29.1336   -6.9895   44.4695 H           1 RX4       0.0493
     52 H18        30.0126   -6.9944   45.9972 H           1 RX4       0.0493
     53 H19        31.1545   -8.1319   43.3867 H           1 RX4       0.0551
     54 H20        32.6622   -9.4928   44.8499 H           1 RX4       0.0257
     55 H21        32.0570   -8.6149   46.2840 H           1 RX4       0.0257
     56 H22        32.9566   -7.7495   45.0127 H           1 RX4       0.0257
     57 H23        29.9600   -9.3511   46.4992 H           1 RX4       0.1883
     58 H24        29.4803  -11.7179   46.5420 H           1 RX4       0.0797
     59 H25        27.3041  -11.3933   47.7214 H           1 RX4       0.0277
     60 H26        27.2070   -9.7306   47.0526 H           1 RX4       0.0277
     61 H27        28.5327  -10.1790   48.1690 H           1 RX4       0.0277
     62 H28        27.7620  -13.2421   43.9885 H           1 RX4       0.1815
     63 H29        28.7767  -13.4143   45.3130 H           1 RX4       0.1815
@<TRIPOS>BOND
     1     1     2  ar
     2     1     6  ar
     3     2     3  ar
     4     3     4  ar
     5     4     5  ar
     6     5     6  ar
     7     6     7   1
     8     7     8   1
     9     8     9   1
    10     8    21   1
    11     9    10  am
    12    10    11   2
    13    10    12   1
    14    12    13   1
    15    12    17   1
    16    13    14   1
    17    14    15  ar
    18    14    16  ar
    19    17    18  am
    20    18    19   1
    21    18    20   2
    22    21    22  ar
    23    21    23  ar
    24    21    24   1
    25    24    25   1
    26    25    26   1
    27    25    27   1
    28    27    28   2
    29    27    29  am
    30    29    30   1
    31    30    31   1
    32    30    32   1
    33    32    33   2
    34    32    34  am
    35     1    35   1
    36     2    36   1
    37     3    37   1
    38     4    38   1
    39     5    39   1
    40     7    40   1
    41     7    41   1
    42     8    42   1
    43     9    43   1
    44    12    44   1
    45    13    45   1
    46    13    46   1
    47    17    47   1
    48    19    48   1
    49    19    49   1
    50    19    50   1
    51    24    51   1
    52    24    52   1
    53    25    53   1
    54    26    54   1
    55    26    55   1
    56    26    56   1
    57    29    57   1
    58    30    58   1
    59    31    59   1
    60    31    60   1
    61    31    61   1
    62    34    62   1
    63    34    63   1
@<TRIPOS>SUBSTRUCTURE
     1  RX4      1

