@<TRIPOS>MOLECULE
2x97_ligand_038
    63    63
SMALL
GAST_HUCK
****
This file was generated by PARSER (from files_GN.cpp)

@<TRIPOS>ATOM
      1 CAP        28.6639  -11.4886   37.8108 C.ar        1 RX4      -0.0602
      2 CAN        28.8520  -12.8775   37.6686 C.ar        1 RX4      -0.0686
      3 CAM        30.0473  -13.4707   38.1098 C.ar        1 RX4      -0.0687
      4 CAO        31.0562  -12.6781   38.6614 C.ar        1 RX4      -0.0686
      5 CAQ        30.8664  -11.2921   38.8102 C.ar        1 RX4      -0.0602
      6 CBC        29.6749  -10.6609   38.3558 C.ar        1 RX4      -0.0393
      7 CAS        29.4797   -9.1952   38.6239 C.3         1 RX4       0.0205
      8 CBG        28.5668   -8.3473   37.6540 C.3         1 RX4       0.1158
      9 NAW        29.2407   -7.1876   37.1490 N.am        1 RX4      -0.2644
     10 CBB        29.6743   -6.1071   37.8025 C.2         1 RX4       0.2049
     11 OAI        29.3748   -5.9233   38.9863 O.2         1 RX4      -0.3944
     12 CBF        30.4362   -5.0966   37.0504 C.3         1 RX4       0.1421
     13 CAR        31.6122   -4.4723   37.8667 C.3         1 RX4       0.0406
     14 CAZ        32.2647   -3.3014   37.2510 C.2         1 RX4       0.0393
     15 OAK        32.0688   -2.9472   35.9603 O.co2       1 RX4      -0.5688
     16 OAG        33.1110   -2.5537   37.9908 O.co2       1 RX4      -0.5688
     17 NAU        29.5217   -4.0769   36.6094 N.am        1 RX4      -0.2643
     18 CAX        28.8522   -4.0568   35.4581 C.2         1 RX4       0.1752
     19 CAA        27.9607   -2.9634   35.1683 C.3         1 RX4       0.0258
     20 OAE        28.9637   -4.9660   34.6427 O.2         1 RX4      -0.3972
     21 P1         27.0282   -7.9954   38.2562 P.3         1 RX4       0.0153
     22 O4         27.0517   -7.7220   39.6685 O.co2       1 RX4      -0.6174
     23 O3         26.2610   -9.2187   38.2118 O.co2       1 RX4      -0.6174
     24 CAT        26.0904   -6.8542   37.4186 C.3         1 RX4       0.0350
     25 CBD        25.7626   -5.4419   38.0490 C.3         1 RX4       0.0618
     26 CAB        24.4230   -4.8702   37.4948 C.3         1 RX4      -0.0438
     27 CBA        25.7295   -5.4048   39.5091 C.2         1 RX4       0.1825
     28 OAH        24.8683   -6.0498   40.0815 O.2         1 RX4      -0.3966
     29 N          26.6290   -4.6680   40.1622 N.am        1 RX4      -0.2656
     30 CA         26.8704   -4.5134   41.5715 C.3         1 RX4       0.1278
     31 CB         26.0567   -5.3723   42.5715 C.3         1 RX4      -0.0244
     32 C          28.2944   -4.7408   41.8111 C.2         1 RX4       0.1989
     33 O          28.9295   -3.9956   42.5575 O.2         1 RX4      -0.3947
     34 NAD        28.9409   -5.7514   41.2716 N.am        1 RX4      -0.2990
     35 H1         27.7784  -11.0918   37.4997 H           1 RX4       0.0557
     36 H2         28.1086  -13.4509   37.2748 H           1 RX4       0.0599
     37 H3         30.1783  -14.4742   38.0226 H           1 RX4       0.0559
     38 H4         31.9220  -13.1058   38.9865 H           1 RX4       0.0599
     39 H5         31.6009  -10.7347   39.2542 H           1 RX4       0.0557
     40 H6         30.4698   -8.7247   38.6323 H           1 RX4       0.0465
     41 H7         29.1352   -9.1239   39.6649 H           1 RX4       0.0465
     42 H8         28.3911   -8.9454   36.7625 H           1 RX4       0.0788
     43 H9         29.4687   -7.2553   36.2077 H           1 RX4       0.1872
     44 H10        30.9099   -5.5820   36.1782 H           1 RX4       0.0819
     45 H11        32.3795   -5.2357   38.0269 H           1 RX4       0.0478
     46 H12        31.2352   -4.1704   38.8469 H           1 RX4       0.0478
     47 H13        29.3955   -3.3297   37.2155 H           1 RX4       0.1884
     48 H14        27.4663   -3.1062   34.2034 H           1 RX4       0.0467
     49 H15        28.5180   -2.0239   35.1354 H           1 RX4       0.0467
     50 H16        27.1905   -2.8985   35.9388 H           1 RX4       0.0467
     51 H17        25.1373   -7.3409   37.1370 H           1 RX4       0.0493
     52 H18        26.6152   -6.6631   36.4626 H           1 RX4       0.0493
     53 H19        26.5485   -4.7550   37.6902 H           1 RX4       0.0551
     54 H20        24.2048   -3.8937   37.9299 H           1 RX4       0.0257
     55 H21        23.5904   -5.5475   37.7296 H           1 RX4       0.0257
     56 H22        24.4802   -4.7520   36.4065 H           1 RX4       0.0257
     57 H23        27.2348   -4.1551   39.6050 H           1 RX4       0.1883
     58 H24        26.6405   -3.4573   41.7979 H           1 RX4       0.0797
     59 H25        26.3927   -5.1955   43.5956 H           1 RX4       0.0277
     60 H26        26.1778   -6.4333   42.3447 H           1 RX4       0.0277
     61 H27        25.0039   -5.1099   42.5079 H           1 RX4       0.0277
     62 H28        29.8713   -5.9067   41.5043 H           1 RX4       0.1815
     63 H29        28.4542   -6.4050   40.7213 H           1 RX4       0.1815
@<TRIPOS>BOND
     1     1     2  ar
     2     1     6  ar
     3     2     3  ar
     4     3     4  ar
     5     4     5  ar
     6     5     6  ar
     7     6     7   1
     8     7     8   1
     9     8     9   1
    10     8    21   1
    11     9    10  am
    12    10    11   2
    13    10    12   1
    14    12    13   1
    15    12    17   1
    16    13    14   1
    17    14    15  ar
    18    14    16  ar
    19    17    18  am
    20    18    19   1
    21    18    20   2
    22    21    22  ar
    23    21    23  ar
    24    21    24   1
    25    24    25   1
    26    25    26   1
    27    25    27   1
    28    27    28   2
    29    27    29  am
    30    29    30   1
    31    30    31   1
    32    30    32   1
    33    32    33   2
    34    32    34  am
    35     1    35   1
    36     2    36   1
    37     3    37   1
    38     4    38   1
    39     5    39   1
    40     7    40   1
    41     7    41   1
    42     8    42   1
    43     9    43   1
    44    12    44   1
    45    13    45   1
    46    13    46   1
    47    17    47   1
    48    19    48   1
    49    19    49   1
    50    19    50   1
    51    24    51   1
    52    24    52   1
    53    25    53   1
    54    26    54   1
    55    26    55   1
    56    26    56   1
    57    29    57   1
    58    30    58   1
    59    31    59   1
    60    31    60   1
    61    31    61   1
    62    34    62   1
    63    34    63   1
@<TRIPOS>SUBSTRUCTURE
     1  RX4      1

