@<TRIPOS>MOLECULE
2x97_ligand_083
    63    63
SMALL
GAST_HUCK
****
This file was generated by PARSER (from files_GN.cpp)

@<TRIPOS>ATOM
      1 CAP        29.1145   -8.5653   41.8396 C.ar        1 RX4      -0.0602
      2 CAN        27.8555   -9.1989   41.8403 C.ar        1 RX4      -0.0686
      3 CAM        27.3789   -9.8243   40.6726 C.ar        1 RX4      -0.0687
      4 CAO        28.1862   -9.8480   39.5181 C.ar        1 RX4      -0.0686
      5 CAQ        29.4407   -9.2213   39.5139 C.ar        1 RX4      -0.0602
      6 CBC        29.9164   -8.5451   40.6720 C.ar        1 RX4      -0.0393
      7 CAS        31.2243   -7.8379   40.6638 C.3         1 RX4       0.0205
      8 CBG        31.1659   -6.2919   40.4143 C.3         1 RX4       0.1158
      9 NAW        30.5188   -5.6225   41.5063 N.am        1 RX4      -0.2644
     10 CBB        31.0653   -4.9131   42.4867 C.2         1 RX4       0.2049
     11 OAI        32.2812   -4.7566   42.5614 O.2         1 RX4      -0.3944
     12 CBF        30.1931   -4.2391   43.4490 C.3         1 RX4       0.1421
     13 CAR        30.8720   -3.7988   44.7850 C.3         1 RX4       0.0406
     14 CAZ        31.5758   -4.8874   45.4998 C.2         1 RX4       0.0393
     15 OAK        32.8405   -4.7143   45.9508 O.co2       1 RX4      -0.5688
     16 OAG        30.9151   -6.0116   45.8629 O.co2       1 RX4      -0.5688
     17 NAU        29.0438   -5.0456   43.7566 N.am        1 RX4      -0.2643
     18 CAX        27.8357   -4.6156   44.1011 C.2         1 RX4       0.1752
     19 CAA        26.8164   -5.5883   44.4170 C.3         1 RX4       0.0258
     20 OAE        27.5705   -3.4195   44.1864 O.2         1 RX4      -0.3972
     21 P1         30.4542   -5.7840   38.9579 P.3         1 RX4       0.0153
     22 O4         29.3276   -4.9105   39.1959 O.co2       1 RX4      -0.6174
     23 O3         29.8529   -6.9144   38.3023 O.co2       1 RX4      -0.6174
     24 CAT        31.5617   -5.0763   37.9087 C.3         1 RX4       0.0350
     25 CBD        31.1453   -3.7646   37.1721 C.3         1 RX4       0.0618
     26 CAB        32.3740   -2.8357   36.9213 C.3         1 RX4      -0.0438
     27 CBA        30.4254   -3.9648   35.9220 C.2         1 RX4       0.1825
     28 OAH        30.8445   -4.7631   35.0966 O.2         1 RX4      -0.3966
     29 N          29.4117   -3.1448   35.6355 N.am        1 RX4      -0.2656
     30 CA         28.7410   -2.9984   34.3705 C.3         1 RX4       0.1278
     31 CB         27.2176   -3.2491   34.5588 C.3         1 RX4      -0.0244
     32 C          29.0189   -1.6629   33.8619 C.2         1 RX4       0.1989
     33 O          29.5459   -1.5107   32.7634 O.2         1 RX4      -0.3947
     34 NAD        28.7840   -0.5799   34.5697 N.am        1 RX4      -0.2990
     35 H1         29.4357   -8.1119   42.7000 H           1 RX4       0.0557
     36 H2         27.2894   -9.2037   42.6916 H           1 RX4       0.0599
     37 H3         26.4608  -10.2739   40.6631 H           1 RX4       0.0559
     38 H4         27.8405  -10.3123   38.6706 H           1 RX4       0.0599
     39 H5         30.0227   -9.2668   38.6722 H           1 RX4       0.0557
     40 H6         31.8839   -8.2776   39.9042 H           1 RX4       0.0465
     41 H7         31.7161   -8.0309   41.6262 H           1 RX4       0.0465
     42 H8         32.2160   -5.9837   40.3834 H           1 RX4       0.0788
     43 H9         29.5547   -5.6952   41.5419 H           1 RX4       0.1872
     44 H10        29.8593   -3.3276   42.9405 H           1 RX4       0.0819
     45 H11        30.1123   -3.3937   45.4560 H           1 RX4       0.0478
     46 H12        31.5823   -2.9931   44.5808 H           1 RX4       0.0478
     47 H13        29.1656   -6.0072   43.7391 H           1 RX4       0.1884
     48 H14        25.8583   -5.1104   44.6526 H           1 RX4       0.0467
     49 H15        27.1260   -6.1797   45.2825 H           1 RX4       0.0467
     50 H16        26.6629   -6.2539   43.5662 H           1 RX4       0.0467
     51 H17        31.8591   -5.8185   37.1654 H           1 RX4       0.0493
     52 H18        32.4553   -4.8460   38.4876 H           1 RX4       0.0493
     53 H19        30.5194   -3.1899   37.8636 H           1 RX4       0.0551
     54 H20        32.0493   -1.8561   36.5566 H           1 RX4       0.0257
     55 H21        33.0580   -3.2666   36.1908 H           1 RX4       0.0257
     56 H22        32.9229   -2.6746   37.8528 H           1 RX4       0.0257
     57 H23        29.1576   -2.5280   36.3406 H           1 RX4       0.1883
     58 H24        29.0878   -3.7416   33.6466 H           1 RX4       0.0797
     59 H25        26.6783   -3.0167   33.6370 H           1 RX4       0.0277
     60 H26        26.8190   -2.6333   35.3624 H           1 RX4       0.0277
     61 H27        27.0448   -4.2988   34.8061 H           1 RX4       0.0277
     62 H28        28.9901    0.2939   34.2062 H           1 RX4       0.1815
     63 H29        28.4167   -0.6571   35.4658 H           1 RX4       0.1815
@<TRIPOS>BOND
     1     1     2  ar
     2     1     6  ar
     3     2     3  ar
     4     3     4  ar
     5     4     5  ar
     6     5     6  ar
     7     6     7   1
     8     7     8   1
     9     8     9   1
    10     8    21   1
    11     9    10  am
    12    10    11   2
    13    10    12   1
    14    12    13   1
    15    12    17   1
    16    13    14   1
    17    14    15  ar
    18    14    16  ar
    19    17    18  am
    20    18    19   1
    21    18    20   2
    22    21    22  ar
    23    21    23  ar
    24    21    24   1
    25    24    25   1
    26    25    26   1
    27    25    27   1
    28    27    28   2
    29    27    29  am
    30    29    30   1
    31    30    31   1
    32    30    32   1
    33    32    33   2
    34    32    34  am
    35     1    35   1
    36     2    36   1
    37     3    37   1
    38     4    38   1
    39     5    39   1
    40     7    40   1
    41     7    41   1
    42     8    42   1
    43     9    43   1
    44    12    44   1
    45    13    45   1
    46    13    46   1
    47    17    47   1
    48    19    48   1
    49    19    49   1
    50    19    50   1
    51    24    51   1
    52    24    52   1
    53    25    53   1
    54    26    54   1
    55    26    55   1
    56    26    56   1
    57    29    57   1
    58    30    58   1
    59    31    59   1
    60    31    60   1
    61    31    61   1
    62    34    62   1
    63    34    63   1
@<TRIPOS>SUBSTRUCTURE
     1  RX4      1

