@<TRIPOS>MOLECULE
2x97_ligand_021
    63    63
SMALL
GAST_HUCK
****
This file was generated by PARSER (from files_GN.cpp)

@<TRIPOS>ATOM
      1 CAP        25.0186   -6.5495   36.4534 C.ar        1 RX4      -0.0602
      2 CAN        23.9789   -5.6692   36.7944 C.ar        1 RX4      -0.0686
      3 CAM        23.7640   -5.3002   38.1416 C.ar        1 RX4      -0.0687
      4 CAO        24.6038   -5.8244   39.1484 C.ar        1 RX4      -0.0686
      5 CAQ        25.6494   -6.7000   38.8072 C.ar        1 RX4      -0.0602
      6 CBC        25.8777   -7.0800   37.4584 C.ar        1 RX4      -0.0393
      7 CAS        26.9239   -8.0930   37.1473 C.3         1 RX4       0.0205
      8 CBG        28.2765   -7.8872   37.9144 C.3         1 RX4       0.1158
      9 NAW        29.1189   -6.9371   37.2065 N.am        1 RX4      -0.2644
     10 CBB        29.5553   -5.7699   37.6763 C.2         1 RX4       0.2049
     11 OAI        29.1714   -5.3517   38.7608 O.2         1 RX4      -0.3944
     12 CBF        30.4213   -4.9091   36.8809 C.3         1 RX4       0.1421
     13 CAR        31.6248   -4.3610   37.7129 C.3         1 RX4       0.0406
     14 CAZ        32.3796   -3.2364   37.1244 C.2         1 RX4       0.0393
     15 OAK        32.2346   -2.8476   35.8334 O.co2       1 RX4      -0.5688
     16 OAG        33.2400   -2.5436   37.9064 O.co2       1 RX4      -0.5688
     17 NAU        29.6013   -3.8431   36.3817 N.am        1 RX4      -0.2643
     18 CAX        29.0688   -3.7493   35.1685 C.2         1 RX4       0.1752
     19 CAA        28.1832   -2.6474   34.8767 C.3         1 RX4       0.0258
     20 OAE        29.2729   -4.5986   34.3071 O.2         1 RX4      -0.3972
     21 P1         29.1146   -9.3167   38.2239 P.3         1 RX4       0.0153
     22 O4         30.3605   -9.3417   37.4825 O.co2       1 RX4      -0.6174
     23 O3         28.4898  -10.4946   37.6603 O.co2       1 RX4      -0.6174
     24 CAT        29.5806   -9.6076   39.8075 C.3         1 RX4       0.0350
     25 CBD        28.8329   -8.8652   40.9895 C.3         1 RX4       0.0618
     26 CAB        27.7115   -9.7216   41.6412 C.3         1 RX4      -0.0438
     27 CBA        29.7861   -8.3644   41.9855 C.2         1 RX4       0.1825
     28 OAH        30.6738   -9.1004   42.4044 O.2         1 RX4      -0.3966
     29 N          29.7314   -7.0868   42.3540 N.am        1 RX4      -0.2656
     30 CA         30.6686   -6.3425   43.1579 C.3         1 RX4       0.1278
     31 CB         31.1243   -5.1200   42.3176 C.3         1 RX4      -0.0244
     32 C          30.1077   -5.9333   44.4367 C.2         1 RX4       0.1989
     33 O          28.9086   -5.9823   44.6730 O.2         1 RX4      -0.3947
     34 NAD        30.8917   -5.5522   45.4285 N.am        1 RX4      -0.2990
     35 H1         25.1419   -6.8286   35.4771 H           1 RX4       0.0557
     36 H2         23.3501   -5.2981   36.0724 H           1 RX4       0.0599
     37 H3         22.9982   -4.6667   38.3954 H           1 RX4       0.0559
     38 H4         24.4342   -5.5924   40.1279 H           1 RX4       0.0599
     39 H5         26.2242   -7.0951   39.5622 H           1 RX4       0.0557
     40 H6         27.1194   -8.1504   36.0675 H           1 RX4       0.0465
     41 H7         26.4666   -9.0533   37.4181 H           1 RX4       0.0465
     42 H8         28.0087   -7.4880   38.8890 H           1 RX4       0.0788
     43 H9         29.4058   -7.1736   36.2899 H           1 RX4       0.1872
     44 H10        30.8407   -5.4974   36.0632 H           1 RX4       0.0819
     45 H11        32.3303   -5.1759   37.8907 H           1 RX4       0.0478
     46 H12        31.2786   -4.0176   38.6935 H           1 RX4       0.0478
     47 H13        29.3961   -3.1244   37.0029 H           1 RX4       0.1884
     48 H14        27.8263   -2.6773   33.8408 H           1 RX4       0.0467
     49 H15        28.7028   -1.6989   35.0360 H           1 RX4       0.0467
     50 H16        27.3180   -2.7007   35.5414 H           1 RX4       0.0467
     51 H17        30.6596   -9.3819   39.8520 H           1 RX4       0.0493
     52 H18        29.5005  -10.6918   39.9712 H           1 RX4       0.0493
     53 H19        28.3055   -7.9997   40.5947 H           1 RX4       0.0551
     54 H20        27.2519   -9.1786   42.4704 H           1 RX4       0.0257
     55 H21        28.0920  -10.6658   42.0308 H           1 RX4       0.0257
     56 H22        26.9355   -9.9360   40.9100 H           1 RX4       0.0257
     57 H23        28.9914   -6.5725   41.9880 H           1 RX4       0.1883
     58 H24        31.5494   -6.9535   43.3657 H           1 RX4       0.0797
     59 H25        31.9147   -4.5725   42.8293 H           1 RX4       0.0277
     60 H26        30.2870   -4.4417   42.1391 H           1 RX4       0.0277
     61 H27        31.5158   -5.4496   41.3498 H           1 RX4       0.0277
     62 H28        30.5100   -5.3122   46.2870 H           1 RX4       0.1815
     63 H29        31.8541   -5.5262   45.3090 H           1 RX4       0.1815
@<TRIPOS>BOND
     1     1     2  ar
     2     1     6  ar
     3     2     3  ar
     4     3     4  ar
     5     4     5  ar
     6     5     6  ar
     7     6     7   1
     8     7     8   1
     9     8     9   1
    10     8    21   1
    11     9    10  am
    12    10    11   2
    13    10    12   1
    14    12    13   1
    15    12    17   1
    16    13    14   1
    17    14    15  ar
    18    14    16  ar
    19    17    18  am
    20    18    19   1
    21    18    20   2
    22    21    22  ar
    23    21    23  ar
    24    21    24   1
    25    24    25   1
    26    25    26   1
    27    25    27   1
    28    27    28   2
    29    27    29  am
    30    29    30   1
    31    30    31   1
    32    30    32   1
    33    32    33   2
    34    32    34  am
    35     1    35   1
    36     2    36   1
    37     3    37   1
    38     4    38   1
    39     5    39   1
    40     7    40   1
    41     7    41   1
    42     8    42   1
    43     9    43   1
    44    12    44   1
    45    13    45   1
    46    13    46   1
    47    17    47   1
    48    19    48   1
    49    19    49   1
    50    19    50   1
    51    24    51   1
    52    24    52   1
    53    25    53   1
    54    26    54   1
    55    26    55   1
    56    26    56   1
    57    29    57   1
    58    30    58   1
    59    31    59   1
    60    31    60   1
    61    31    61   1
    62    34    62   1
    63    34    63   1
@<TRIPOS>SUBSTRUCTURE
     1  RX4      1

