@<TRIPOS>MOLECULE
2x97_ligand_042
    63    63
SMALL
GAST_HUCK
****
This file was generated by PARSER (from files_GN.cpp)

@<TRIPOS>ATOM
      1 CAP        26.8209   -5.1819   44.1144 C.ar        1 RX4      -0.0602
      2 CAN        27.4322   -4.8569   45.3371 C.ar        1 RX4      -0.0686
      3 CAM        27.8226   -3.5296   45.5980 C.ar        1 RX4      -0.0687
      4 CAO        27.6190   -2.5359   44.6263 C.ar        1 RX4      -0.0686
      5 CAQ        27.0427   -2.8754   43.3864 C.ar        1 RX4      -0.0602
      6 CBC        26.6550   -4.2020   43.1054 C.ar        1 RX4      -0.0393
      7 CAS        26.1135   -4.5653   41.7582 C.3         1 RX4       0.0205
      8 CBG        26.8235   -5.7731   41.0520 C.3         1 RX4       0.1158
      9 NAW        28.2229   -5.8590   41.4126 N.am        1 RX4      -0.2644
     10 CBB        28.7867   -6.7298   42.2450 C.2         1 RX4       0.2049
     11 OAI        28.0984   -7.5307   42.8699 O.2         1 RX4      -0.3944
     12 CBF        30.2194   -6.6503   42.5226 C.3         1 RX4       0.1421
     13 CAR        30.8846   -8.0247   42.9077 C.3         1 RX4       0.0406
     14 CAZ        31.3959   -8.1446   44.2898 C.2         1 RX4       0.0393
     15 OAK        30.5909   -7.9207   45.3530 O.co2       1 RX4      -0.5688
     16 OAG        32.6606   -8.5521   44.5214 O.co2       1 RX4      -0.5688
     17 NAU        30.4016   -5.6159   43.5042 N.am        1 RX4      -0.2643
     18 CAX        31.4326   -4.7881   43.6243 C.2         1 RX4       0.1752
     19 CAA        31.4255   -3.8297   44.7061 C.3         1 RX4       0.0258
     20 OAE        32.3568   -4.7773   42.8174 O.2         1 RX4      -0.3972
     21 P1         26.7272   -5.7426   39.3779 P.3         1 RX4       0.0153
     22 O4         27.4537   -6.8775   38.8645 O.co2       1 RX4      -0.6174
     23 O3         27.4556   -4.5750   38.9301 O.co2       1 RX4      -0.6174
     24 CAT        25.1804   -5.6739   38.7207 C.3         1 RX4       0.0350
     25 CBD        24.9151   -6.4623   37.3941 C.3         1 RX4       0.0618
     26 CAB        23.4539   -6.2506   36.8970 C.3         1 RX4      -0.0438
     27 CBA        25.8318   -6.2493   36.2717 C.2         1 RX4       0.1825
     28 OAH        25.8818   -7.1274   35.4227 O.2         1 RX4      -0.3966
     29 N          26.5710   -5.1475   36.1565 N.am        1 RX4      -0.2656
     30 CA         27.5807   -4.9111   35.1568 C.3         1 RX4       0.1278
     31 CB         27.4541   -3.4339   34.6986 C.3         1 RX4      -0.0244
     32 C          28.8869   -5.3008   35.6783 C.2         1 RX4       0.1989
     33 O          28.9615   -5.8569   36.7640 O.2         1 RX4      -0.3947
     34 NAD        30.0213   -5.1744   35.0201 N.am        1 RX4      -0.2990
     35 H1         26.5327   -6.1496   43.9525 H           1 RX4       0.0557
     36 H2         27.5837   -5.5776   46.0435 H           1 RX4       0.0599
     37 H3         28.2711   -3.2928   46.4854 H           1 RX4       0.0559
     38 H4         27.8997   -1.5741   44.8079 H           1 RX4       0.0599
     39 H5         26.9032   -2.1359   42.6938 H           1 RX4       0.0557
     40 H6         26.1462   -3.6851   41.1060 H           1 RX4       0.0465
     41 H7         25.0590   -4.8176   41.8969 H           1 RX4       0.0465
     42 H8         26.2958   -6.6777   41.3696 H           1 RX4       0.0788
     43 H9         28.8120   -5.1949   41.0142 H           1 RX4       0.1872
     44 H10        30.6890   -6.3266   41.5868 H           1 RX4       0.0819
     45 H11        31.7167   -8.2008   42.2231 H           1 RX4       0.0478
     46 H12        30.1995   -8.8591   42.7441 H           1 RX4       0.0478
     47 H13        29.7060   -5.5279   44.1771 H           1 RX4       0.1884
     48 H14        32.3212   -3.2011   44.6987 H           1 RX4       0.0467
     49 H15        31.3854   -4.3564   45.6619 H           1 RX4       0.0467
     50 H16        30.5520   -3.1791   44.6212 H           1 RX4       0.0467
     51 H17        24.9208   -4.6265   38.5646 H           1 RX4       0.0493
     52 H18        24.5010   -6.0667   39.4824 H           1 RX4       0.0493
     53 H19        24.9943   -7.5216   37.6687 H           1 RX4       0.0551
     54 H20        23.2356   -6.8835   36.0309 H           1 RX4       0.0257
     55 H21        23.2899   -5.2118   36.6118 H           1 RX4       0.0257
     56 H22        22.7450   -6.5103   37.6867 H           1 RX4       0.0257
     57 H23        26.4817   -4.4758   36.8483 H           1 RX4       0.1883
     58 H24        27.4023   -5.5240   34.2715 H           1 RX4       0.0797
     59 H25        28.1481   -3.2295   33.8818 H           1 RX4       0.0277
     60 H26        27.6667   -2.7555   35.5287 H           1 RX4       0.0277
     61 H27        26.4389   -3.2356   34.3401 H           1 RX4       0.0277
     62 H28        30.8473   -5.4900   35.4246 H           1 RX4       0.1815
     63 H29        30.0453   -4.7845   34.1308 H           1 RX4       0.1815
@<TRIPOS>BOND
     1     1     2  ar
     2     1     6  ar
     3     2     3  ar
     4     3     4  ar
     5     4     5  ar
     6     5     6  ar
     7     6     7   1
     8     7     8   1
     9     8     9   1
    10     8    21   1
    11     9    10  am
    12    10    11   2
    13    10    12   1
    14    12    13   1
    15    12    17   1
    16    13    14   1
    17    14    15  ar
    18    14    16  ar
    19    17    18  am
    20    18    19   1
    21    18    20   2
    22    21    22  ar
    23    21    23  ar
    24    21    24   1
    25    24    25   1
    26    25    26   1
    27    25    27   1
    28    27    28   2
    29    27    29  am
    30    29    30   1
    31    30    31   1
    32    30    32   1
    33    32    33   2
    34    32    34  am
    35     1    35   1
    36     2    36   1
    37     3    37   1
    38     4    38   1
    39     5    39   1
    40     7    40   1
    41     7    41   1
    42     8    42   1
    43     9    43   1
    44    12    44   1
    45    13    45   1
    46    13    46   1
    47    17    47   1
    48    19    48   1
    49    19    49   1
    50    19    50   1
    51    24    51   1
    52    24    52   1
    53    25    53   1
    54    26    54   1
    55    26    55   1
    56    26    56   1
    57    29    57   1
    58    30    58   1
    59    31    59   1
    60    31    60   1
    61    31    61   1
    62    34    62   1
    63    34    63   1
@<TRIPOS>SUBSTRUCTURE
     1  RX4      1

