@<TRIPOS>MOLECULE
2x97_ligand_068
    63    63
SMALL
GAST_HUCK
****
This file was generated by PARSER (from files_GN.cpp)

@<TRIPOS>ATOM
      1 CAP        28.4162   -4.3269   43.7150 C.ar        1 RX4      -0.0602
      2 CAN        29.1174   -3.1622   44.0742 C.ar        1 RX4      -0.0686
      3 CAM        28.5760   -1.8992   43.7837 C.ar        1 RX4      -0.0687
      4 CAO        27.3293   -1.8032   43.1360 C.ar        1 RX4      -0.0686
      5 CAQ        26.6420   -2.9734   42.7510 C.ar        1 RX4      -0.0602
      6 CBC        27.1809   -4.2530   43.0203 C.ar        1 RX4      -0.0393
      7 CAS        26.4555   -5.5001   42.6213 C.3         1 RX4       0.0205
      8 CBG        27.0877   -6.3384   41.4560 C.3         1 RX4       0.1158
      9 NAW        28.5004   -6.4482   41.6570 N.am        1 RX4      -0.2644
     10 CBB        29.2240   -7.4894   42.0450 C.2         1 RX4       0.2049
     11 OAI        28.7005   -8.5655   42.3080 O.2         1 RX4      -0.3944
     12 CBF        30.6759   -7.3192   42.1393 C.3         1 RX4       0.1421
     13 CAR        31.3980   -7.5812   40.7652 C.3         1 RX4       0.0406
     14 CAZ        32.1467   -6.4199   40.2425 C.2         1 RX4       0.0393
     15 OAK        33.1274   -6.6183   39.3292 O.co2       1 RX4      -0.5688
     16 OAG        31.5690   -5.1960   40.2687 O.co2       1 RX4      -0.5688
     17 NAU        31.1934   -8.1823   43.1705 N.am        1 RX4      -0.2643
     18 CAX        31.6324   -7.8365   44.3794 C.2         1 RX4       0.1752
     19 CAA        32.1365   -8.8646   45.2572 C.3         1 RX4       0.0258
     20 OAE        31.6609   -6.6714   44.7504 O.2         1 RX4      -0.3972
     21 P1         26.8316   -5.7464   39.8976 P.3         1 RX4       0.0153
     22 O4         28.0245   -5.8912   39.0975 O.co2       1 RX4      -0.6174
     23 O3         26.5528   -4.3302   39.8515 O.co2       1 RX4      -0.6174
     24 CAT        25.6140   -6.5502   39.0750 C.3         1 RX4       0.0350
     25 CBD        25.1766   -6.1041   37.6239 C.3         1 RX4       0.0618
     26 CAB        23.8700   -5.2450   37.6514 C.3         1 RX4      -0.0438
     27 CBA        26.2385   -5.4878   36.8130 C.2         1 RX4       0.1825
     28 OAH        26.1546   -4.3177   36.4590 O.2         1 RX4      -0.3966
     29 N          27.3257   -6.1831   36.5006 N.am        1 RX4      -0.2656
     30 CA         28.5181   -5.7399   35.8242 C.3         1 RX4       0.1278
     31 CB         28.2611   -5.3595   34.3443 C.3         1 RX4      -0.0244
     32 C          29.2624   -4.7190   36.5600 C.2         1 RX4       0.1989
     33 O          30.1572   -5.0422   37.3281 O.2         1 RX4      -0.3947
     34 NAD        29.0273   -3.4278   36.4400 N.am        1 RX4      -0.2990
     35 H1         28.8188   -5.2337   43.9615 H           1 RX4       0.0557
     36 H2         30.0212   -3.2311   44.5490 H           1 RX4       0.0599
     37 H3         29.0840   -1.0496   44.0372 H           1 RX4       0.0559
     38 H4         26.9376   -0.8856   42.9279 H           1 RX4       0.0599
     39 H5         25.7471   -2.8825   42.2674 H           1 RX4       0.0557
     40 H6         25.4149   -5.2689   42.3670 H           1 RX4       0.0465
     41 H7         26.4003   -6.1384   43.5098 H           1 RX4       0.0465
     42 H8         26.6229   -7.3285   41.5036 H           1 RX4       0.0788
     43 H9         28.9999   -5.6349   41.4852 H           1 RX4       0.1872
     44 H10        30.8586   -6.2811   42.4385 H           1 RX4       0.0819
     45 H11        30.6828   -7.8734   39.9932 H           1 RX4       0.0478
     46 H12        32.0915   -8.4195   40.8587 H           1 RX4       0.0478
     47 H13        31.2080   -9.1327   42.9630 H           1 RX4       0.1884
     48 H14        32.4470   -8.4477   46.2168 H           1 RX4       0.0467
     49 H15        32.9977   -9.3430   44.7915 H           1 RX4       0.0467
     50 H16        31.3687   -9.6158   45.4433 H           1 RX4       0.0467
     51 H17        24.7421   -6.5217   39.7282 H           1 RX4       0.0493
     52 H18        25.9112   -7.6027   39.0250 H           1 RX4       0.0493
     53 H19        24.8791   -7.0203   37.0937 H           1 RX4       0.0551
     54 H20        23.5492   -5.0053   36.6341 H           1 RX4       0.0257
     55 H21        24.0378   -4.3123   38.1915 H           1 RX4       0.0257
     56 H22        23.0558   -5.7889   38.1349 H           1 RX4       0.0257
     57 H23        27.3343   -7.1041   36.7963 H           1 RX4       0.1883
     58 H24        29.1505   -6.6292   35.7958 H           1 RX4       0.0797
     59 H25        29.2035   -5.1508   33.8325 H           1 RX4       0.0277
     60 H26        27.6229   -4.4779   34.2691 H           1 RX4       0.0277
     61 H27        27.7694   -6.1841   33.8270 H           1 RX4       0.0277
     62 H28        29.5046   -2.7967   37.0053 H           1 RX4       0.1815
     63 H29        28.3272   -3.1028   35.8491 H           1 RX4       0.1815
@<TRIPOS>BOND
     1     1     2  ar
     2     1     6  ar
     3     2     3  ar
     4     3     4  ar
     5     4     5  ar
     6     5     6  ar
     7     6     7   1
     8     7     8   1
     9     8     9   1
    10     8    21   1
    11     9    10  am
    12    10    11   2
    13    10    12   1
    14    12    13   1
    15    12    17   1
    16    13    14   1
    17    14    15  ar
    18    14    16  ar
    19    17    18  am
    20    18    19   1
    21    18    20   2
    22    21    22  ar
    23    21    23  ar
    24    21    24   1
    25    24    25   1
    26    25    26   1
    27    25    27   1
    28    27    28   2
    29    27    29  am
    30    29    30   1
    31    30    31   1
    32    30    32   1
    33    32    33   2
    34    32    34  am
    35     1    35   1
    36     2    36   1
    37     3    37   1
    38     4    38   1
    39     5    39   1
    40     7    40   1
    41     7    41   1
    42     8    42   1
    43     9    43   1
    44    12    44   1
    45    13    45   1
    46    13    46   1
    47    17    47   1
    48    19    48   1
    49    19    49   1
    50    19    50   1
    51    24    51   1
    52    24    52   1
    53    25    53   1
    54    26    54   1
    55    26    55   1
    56    26    56   1
    57    29    57   1
    58    30    58   1
    59    31    59   1
    60    31    60   1
    61    31    61   1
    62    34    62   1
    63    34    63   1
@<TRIPOS>SUBSTRUCTURE
     1  RX4      1

