@<TRIPOS>MOLECULE
2x97_ligand_080
    63    63
SMALL
GAST_HUCK
****
This file was generated by PARSER (from files_GN.cpp)

@<TRIPOS>ATOM
      1 CAP        27.0493   -2.4256   43.2000 C.ar        1 RX4      -0.0602
      2 CAN        26.6159   -1.5017   44.1729 C.ar        1 RX4      -0.0686
      3 CAM        26.9985   -1.6633   45.5154 C.ar        1 RX4      -0.0687
      4 CAO        27.7673   -2.7771   45.8947 C.ar        1 RX4      -0.0686
      5 CAQ        28.1482   -3.7260   44.9343 C.ar        1 RX4      -0.0602
      6 CBC        27.8422   -3.5472   43.5653 C.ar        1 RX4      -0.0393
      7 CAS        28.2373   -4.5755   42.5589 C.3         1 RX4       0.0205
      8 CBG        29.7460   -4.5751   42.1411 C.3         1 RX4       0.1158
      9 NAW        29.8184   -5.2356   40.8632 N.am        1 RX4      -0.2644
     10 CBB        30.7972   -5.1750   39.9646 C.2         1 RX4       0.2049
     11 OAI        31.8156   -4.5487   40.2083 O.2         1 RX4      -0.3944
     12 CBF        30.6410   -5.8213   38.6640 C.3         1 RX4       0.1421
     13 CAR        31.5028   -7.1177   38.5055 C.3         1 RX4       0.0406
     14 CAZ        31.1249   -8.2250   39.4031 C.2         1 RX4       0.0393
     15 OAK        32.0395   -9.1454   39.8011 O.co2       1 RX4      -0.5688
     16 OAG        29.8421   -8.4046   39.7910 O.co2       1 RX4      -0.5688
     17 NAU        30.8064   -4.8897   37.5724 N.am        1 RX4      -0.2643
     18 CAX        31.8157   -4.0658   37.3298 C.2         1 RX4       0.1752
     19 CAA        31.7469   -3.1730   36.1956 C.3         1 RX4       0.0258
     20 OAE        32.8156   -4.0358   38.0366 O.2         1 RX4      -0.3972
     21 P1         30.8482   -5.2733   43.2112 P.3         1 RX4       0.0153
     22 O4         30.8806   -4.6861   44.5286 O.co2       1 RX4      -0.6174
     23 O3         32.1577   -4.9022   42.7427 O.co2       1 RX4      -0.6174
     24 CAT        30.9076   -6.9394   43.2899 C.3         1 RX4       0.0350
     25 CBD        29.5899   -7.7297   43.5959 C.3         1 RX4       0.0618
     26 CAB        29.7456   -9.2068   43.1497 C.3         1 RX4      -0.0438
     27 CBA        29.1782   -7.6860   44.9919 C.2         1 RX4       0.1825
     28 OAH        28.0546   -7.2638   45.2516 O.2         1 RX4      -0.3966
     29 N          29.9785   -8.1666   45.9416 N.am        1 RX4      -0.2656
     30 CA         29.7425   -8.3342   47.3479 C.3         1 RX4       0.1278
     31 CB         29.0521   -7.1462   48.0691 C.3         1 RX4      -0.0244
     32 C          29.1164   -9.6294   47.5944 C.2         1 RX4       0.1989
     33 O          29.7912  -10.5893   47.9420 O.2         1 RX4      -0.3947
     34 NAD        27.8339   -9.8444   47.4061 N.am        1 RX4      -0.2990
     35 H1         26.7578   -2.2904   42.2268 H           1 RX4       0.0557
     36 H2         26.0281   -0.7104   43.9034 H           1 RX4       0.0599
     37 H3         26.6796   -0.9978   46.2233 H           1 RX4       0.0559
     38 H4         28.0425   -2.9096   46.8703 H           1 RX4       0.0599
     39 H5         28.6229   -4.5720   45.2552 H           1 RX4       0.0557
     40 H6         27.6309   -4.3946   41.6595 H           1 RX4       0.0465
     41 H7         27.9333   -5.5496   42.9274 H           1 RX4       0.0465
     42 H8         30.0431   -3.5235   42.0041 H           1 RX4       0.0788
     43 H9         29.0277   -5.7343   40.5962 H           1 RX4       0.1872
     44 H10        29.5985   -6.1421   38.5700 H           1 RX4       0.0819
     45 H11        32.5602   -6.8831   38.6571 H           1 RX4       0.0478
     46 H12        31.3849   -7.4825   37.4827 H           1 RX4       0.0478
     47 H13        30.0742   -4.8631   36.9329 H           1 RX4       0.1884
     48 H14        32.6398   -2.5524   36.1190 H           1 RX4       0.0467
     49 H15        30.8817   -2.5174   36.2919 H           1 RX4       0.0467
     50 H16        31.6532   -3.7551   35.2800 H           1 RX4       0.0467
     51 H17        31.6639   -7.2097   44.0337 H           1 RX4       0.0493
     52 H18        31.2844   -7.2771   42.3194 H           1 RX4       0.0493
     53 H19        28.7999   -7.3196   42.9571 H           1 RX4       0.0551
     54 H20        28.8298   -9.7728   43.3587 H           1 RX4       0.0257
     55 H21        30.5851   -9.6909   43.6675 H           1 RX4       0.0257
     56 H22        29.9326   -9.2353   42.0757 H           1 RX4       0.0257
     57 H23        30.8390   -8.4996   45.6326 H           1 RX4       0.1883
     58 H24        30.7468   -8.3715   47.7817 H           1 RX4       0.0797
     59 H25        29.0915   -7.2772   49.1503 H           1 RX4       0.0277
     60 H26        28.0055   -7.0640   47.7788 H           1 RX4       0.0277
     61 H27        29.5561   -6.2133   47.8139 H           1 RX4       0.0277
     62 H28        27.4606  -10.7238   47.5739 H           1 RX4       0.1815
     63 H29        27.2511   -9.1225   47.1286 H           1 RX4       0.1815
@<TRIPOS>BOND
     1     1     2  ar
     2     1     6  ar
     3     2     3  ar
     4     3     4  ar
     5     4     5  ar
     6     5     6  ar
     7     6     7   1
     8     7     8   1
     9     8     9   1
    10     8    21   1
    11     9    10  am
    12    10    11   2
    13    10    12   1
    14    12    13   1
    15    12    17   1
    16    13    14   1
    17    14    15  ar
    18    14    16  ar
    19    17    18  am
    20    18    19   1
    21    18    20   2
    22    21    22  ar
    23    21    23  ar
    24    21    24   1
    25    24    25   1
    26    25    26   1
    27    25    27   1
    28    27    28   2
    29    27    29  am
    30    29    30   1
    31    30    31   1
    32    30    32   1
    33    32    33   2
    34    32    34  am
    35     1    35   1
    36     2    36   1
    37     3    37   1
    38     4    38   1
    39     5    39   1
    40     7    40   1
    41     7    41   1
    42     8    42   1
    43     9    43   1
    44    12    44   1
    45    13    45   1
    46    13    46   1
    47    17    47   1
    48    19    48   1
    49    19    49   1
    50    19    50   1
    51    24    51   1
    52    24    52   1
    53    25    53   1
    54    26    54   1
    55    26    55   1
    56    26    56   1
    57    29    57   1
    58    30    58   1
    59    31    59   1
    60    31    60   1
    61    31    61   1
    62    34    62   1
    63    34    63   1
@<TRIPOS>SUBSTRUCTURE
     1  RX4      1

