@<TRIPOS>MOLECULE
2x97_ligand_046
    63    63
SMALL
GAST_HUCK
****
This file was generated by PARSER (from files_GN.cpp)

@<TRIPOS>ATOM
      1 CAP        30.7576   -9.0873   40.0618 C.ar        1 RX4      -0.0602
      2 CAN        30.3330  -10.0296   39.1103 C.ar        1 RX4      -0.0686
      3 CAM        28.9607  -10.3170   38.9729 C.ar        1 RX4      -0.0687
      4 CAO        28.0240   -9.6823   39.8074 C.ar        1 RX4      -0.0686
      5 CAQ        28.4510   -8.7506   40.7716 C.ar        1 RX4      -0.0602
      6 CBC        29.8273   -8.4277   40.8958 C.ar        1 RX4      -0.0393
      7 CAS        30.2765   -7.3739   41.8456 C.3         1 RX4       0.0205
      8 CBG        29.7851   -5.9407   41.4546 C.3         1 RX4       0.1158
      9 NAW        29.6378   -5.7048   40.0328 N.am        1 RX4      -0.2644
     10 CBB        30.4891   -5.9256   39.0373 C.2         1 RX4       0.2049
     11 OAI        31.6336   -6.2874   39.2930 O.2         1 RX4      -0.3944
     12 CBF        30.0605   -5.8025   37.6350 C.3         1 RX4       0.1421
     13 CAR        29.5946   -4.3742   37.1901 C.3         1 RX4       0.0406
     14 CAZ        28.1681   -4.0384   37.3779 C.2         1 RX4       0.0393
     15 OAK        27.6490   -3.7752   38.5987 O.co2       1 RX4      -0.5688
     16 OAG        27.3675   -3.8599   36.3010 O.co2       1 RX4      -0.5688
     17 NAU        29.1713   -6.8416   37.1624 N.am        1 RX4      -0.2643
     18 CAX        27.9565   -7.1916   37.5795 C.2         1 RX4       0.1752
     19 CAA        27.1975   -8.1527   36.8104 C.3         1 RX4       0.0258
     20 OAE        27.4344   -6.7090   38.5787 O.2         1 RX4      -0.3972
     21 P1         30.5940   -4.7015   42.2486 P.3         1 RX4       0.0153
     22 O4         30.3985   -3.4516   41.5435 O.co2       1 RX4      -0.6174
     23 O3         32.0229   -4.8942   42.1500 O.co2       1 RX4      -0.6174
     24 CAT        30.2320   -4.4506   43.8629 C.3         1 RX4       0.0350
     25 CBD        28.6981   -4.3297   44.2106 C.3         1 RX4       0.0618
     26 CAB        28.2041   -5.5481   45.0554 C.3         1 RX4      -0.0438
     27 CBA        28.3547   -3.0427   44.8202 C.2         1 RX4       0.1825
     28 OAH        28.4137   -2.9176   46.0405 O.2         1 RX4      -0.3966
     29 N          27.9901   -2.0292   44.0385 N.am        1 RX4      -0.2656
     30 CA         27.4877   -0.7423   44.4437 C.3         1 RX4       0.1278
     31 CB         27.5165    0.1956   43.2091 C.3         1 RX4      -0.0244
     32 C          26.1833   -0.8910   45.0867 C.2         1 RX4       0.1989
     33 O          26.1254   -1.3535   46.2172 O.2         1 RX4      -0.3947
     34 NAD        25.0395   -0.6704   44.4706 N.am        1 RX4      -0.2990
     35 H1         31.7573   -8.8908   40.1448 H           1 RX4       0.0557
     36 H2         31.0174  -10.5048   38.5194 H           1 RX4       0.0599
     37 H3         28.6526  -11.0042   38.2826 H           1 RX4       0.0559
     38 H4         27.0296   -9.9051   39.7202 H           1 RX4       0.0599
     39 H5         27.7535   -8.2935   41.3646 H           1 RX4       0.0557
     40 H6         31.3683   -7.3774   41.9092 H           1 RX4       0.0465
     41 H7         29.9093   -7.6293   42.8457 H           1 RX4       0.0465
     42 H8         28.7531   -5.8846   41.8080 H           1 RX4       0.0788
     43 H9         28.7504   -5.4213   39.7564 H           1 RX4       0.1872
     44 H10        30.9700   -5.9750   37.0402 H           1 RX4       0.0819
     45 H11        29.8126   -4.2732   36.1214 H           1 RX4       0.0478
     46 H12        30.2040   -3.6250   37.6959 H           1 RX4       0.0478
     47 H13        29.4769   -7.3206   36.3697 H           1 RX4       0.1884
     48 H14        26.2752   -8.4452   37.3289 H           1 RX4       0.0467
     49 H15        27.7929   -9.0550   36.6377 H           1 RX4       0.0467
     50 H16        26.9250   -7.7197   35.8413 H           1 RX4       0.0467
     51 H17        30.7618   -3.5429   44.1733 H           1 RX4       0.0493
     52 H18        30.6969   -5.2648   44.4305 H           1 RX4       0.0493
     53 H19        28.1116   -4.3935   43.2851 H           1 RX4       0.0551
     54 H20        27.1254   -5.4870   45.2273 H           1 RX4       0.0257
     55 H21        28.7112   -5.5821   46.0247 H           1 RX4       0.0257
     56 H22        28.4110   -6.4840   44.5253 H           1 RX4       0.0257
     57 H23        28.0729   -2.1788   43.0768 H           1 RX4       0.1883
     58 H24        28.1728   -0.2858   45.1641 H           1 RX4       0.0797
     59 H25        27.1336    1.1850   43.4686 H           1 RX4       0.0277
     60 H26        26.9177   -0.2100   42.3924 H           1 RX4       0.0277
     61 H27        28.5436    0.3089   42.8528 H           1 RX4       0.0277
     62 H28        24.2031   -0.8887   44.9086 H           1 RX4       0.1815
     63 H29        25.0332   -0.3745   43.5492 H           1 RX4       0.1815
@<TRIPOS>BOND
     1     1     2  ar
     2     1     6  ar
     3     2     3  ar
     4     3     4  ar
     5     4     5  ar
     6     5     6  ar
     7     6     7   1
     8     7     8   1
     9     8     9   1
    10     8    21   1
    11     9    10  am
    12    10    11   2
    13    10    12   1
    14    12    13   1
    15    12    17   1
    16    13    14   1
    17    14    15  ar
    18    14    16  ar
    19    17    18  am
    20    18    19   1
    21    18    20   2
    22    21    22  ar
    23    21    23  ar
    24    21    24   1
    25    24    25   1
    26    25    26   1
    27    25    27   1
    28    27    28   2
    29    27    29  am
    30    29    30   1
    31    30    31   1
    32    30    32   1
    33    32    33   2
    34    32    34  am
    35     1    35   1
    36     2    36   1
    37     3    37   1
    38     4    38   1
    39     5    39   1
    40     7    40   1
    41     7    41   1
    42     8    42   1
    43     9    43   1
    44    12    44   1
    45    13    45   1
    46    13    46   1
    47    17    47   1
    48    19    48   1
    49    19    49   1
    50    19    50   1
    51    24    51   1
    52    24    52   1
    53    25    53   1
    54    26    54   1
    55    26    55   1
    56    26    56   1
    57    29    57   1
    58    30    58   1
    59    31    59   1
    60    31    60   1
    61    31    61   1
    62    34    62   1
    63    34    63   1
@<TRIPOS>SUBSTRUCTURE
     1  RX4      1

