@<TRIPOS>MOLECULE
2x97_ligand_022
    63    63
SMALL
GAST_HUCK
****
This file was generated by PARSER (from files_GN.cpp)

@<TRIPOS>ATOM
      1 CAP        31.9084   -5.9987   44.4875 C.ar        1 RX4      -0.0602
      2 CAN        32.2667   -5.5751   45.7822 C.ar        1 RX4      -0.0686
      3 CAM        31.8911   -6.3504   46.8988 C.ar        1 RX4      -0.0687
      4 CAO        31.1990   -7.5616   46.7147 C.ar        1 RX4      -0.0686
      5 CAQ        30.8631   -7.9923   45.4147 C.ar        1 RX4      -0.0602
      6 CBC        31.2002   -7.2112   44.2800 C.ar        1 RX4      -0.0393
      7 CAS        30.8049   -7.6387   42.9124 C.3         1 RX4       0.0205
      8 CBG        29.4075   -8.3442   42.7251 C.3         1 RX4       0.1158
      9 NAW        29.0525   -8.6412   41.3593 N.am        1 RX4      -0.2644
     10 CBB        29.1959   -7.8864   40.2672 C.2         1 RX4       0.2049
     11 OAI        29.7330   -6.7883   40.3364 O.2         1 RX4      -0.3944
     12 CBF        28.4946   -8.2457   39.0241 C.3         1 RX4       0.1421
     13 CAR        28.7563   -9.6926   38.5055 C.3         1 RX4       0.0406
     14 CAZ        27.5605  -10.2723   37.8714 C.2         1 RX4       0.0393
     15 OAK        27.6534  -11.0450   36.7626 O.co2       1 RX4      -0.5688
     16 OAG        26.3644  -10.1948   38.5019 O.co2       1 RX4      -0.5688
     17 NAU        28.6815   -7.2877   37.9630 N.am        1 RX4      -0.2643
     18 CAX        29.8392   -6.8252   37.4895 C.2         1 RX4       0.1752
     19 CAA        29.8077   -5.7415   36.5406 C.3         1 RX4       0.0258
     20 OAE        30.9218   -7.2584   37.8753 O.2         1 RX4      -0.3972
     21 P1         28.0625   -7.7376   43.5266 P.3         1 RX4       0.0153
     22 O4         28.3753   -7.1068   44.7838 O.co2       1 RX4      -0.6174
     23 O3         27.3453   -8.8961   44.0068 O.co2       1 RX4      -0.6174
     24 CAT        26.8724   -6.8892   42.6985 C.3         1 RX4       0.0350
     25 CBD        27.1695   -5.3902   42.3557 C.3         1 RX4       0.0618
     26 CAB        26.1592   -4.9051   41.2739 C.3         1 RX4      -0.0438
     27 CBA        27.1513   -4.4595   43.4907 C.2         1 RX4       0.1825
     28 OAH        26.6878   -4.7951   44.5732 O.2         1 RX4      -0.3966
     29 N          27.6305   -3.2318   43.3294 N.am        1 RX4      -0.2656
     30 CA         27.7003   -2.1952   44.3209 C.3         1 RX4       0.1278
     31 CB         28.2617   -0.9041   43.6836 C.3         1 RX4      -0.0244
     32 C          26.4168   -1.9550   44.9675 C.2         1 RX4       0.1989
     33 O          26.2330   -2.2916   46.1306 O.2         1 RX4      -0.3947
     34 NAD        25.3905   -1.4528   44.3177 N.am        1 RX4      -0.2990
     35 H1         32.1654   -5.4055   43.6956 H           1 RX4       0.0557
     36 H2         32.7921   -4.7111   45.9132 H           1 RX4       0.0599
     37 H3         32.1516   -6.0473   47.8386 H           1 RX4       0.0559
     38 H4         30.9289   -8.1229   47.5190 H           1 RX4       0.0599
     39 H5         30.3739   -8.8811   45.3043 H           1 RX4       0.0557
     40 H6         31.5662   -8.3451   42.5669 H           1 RX4       0.0465
     41 H7         30.8738   -6.7678   42.2616 H           1 RX4       0.0465
     42 H8         29.5726   -9.3367   43.1620 H           1 RX4       0.0788
     43 H9         28.5525   -9.4668   41.2488 H           1 RX4       0.1872
     44 H10        27.4335   -8.1746   39.2986 H           1 RX4       0.0819
     45 H11        29.0335  -10.3637   39.3291 H           1 RX4       0.0478
     46 H12        29.5937   -9.7022   37.7979 H           1 RX4       0.0478
     47 H13        27.8773   -6.8607   37.6242 H           1 RX4       0.1884
     48 H14        30.8164   -5.4622   36.2214 H           1 RX4       0.0467
     49 H15        29.3350   -4.8650   36.9996 H           1 RX4       0.0467
     50 H16        29.2285   -6.0378   35.6591 H           1 RX4       0.0467
     51 H17        25.9440   -6.9278   43.2781 H           1 RX4       0.0493
     52 H18        26.6850   -7.4387   41.7787 H           1 RX4       0.0493
     53 H19        28.1681   -5.3280   41.9106 H           1 RX4       0.0551
     54 H20        26.3312   -3.8604   40.9898 H           1 RX4       0.0257
     55 H21        25.1312   -4.9969   41.6380 H           1 RX4       0.0257
     56 H22        26.2536   -5.5067   40.3653 H           1 RX4       0.0257
     57 H23        28.0076   -3.0196   42.4584 H           1 RX4       0.1883
     58 H24        28.4286   -2.5235   45.0721 H           1 RX4       0.0797
     59 H25        28.3728   -0.1164   44.4339 H           1 RX4       0.0277
     60 H26        27.6034   -0.5420   42.8878 H           1 RX4       0.0277
     61 H27        29.2484   -1.1019   43.2459 H           1 RX4       0.0277
     62 H28        24.5245   -1.3891   44.7496 H           1 RX4       0.1815
     63 H29        25.4849   -1.1913   43.3915 H           1 RX4       0.1815
@<TRIPOS>BOND
     1     1     2  ar
     2     1     6  ar
     3     2     3  ar
     4     3     4  ar
     5     4     5  ar
     6     5     6  ar
     7     6     7   1
     8     7     8   1
     9     8     9   1
    10     8    21   1
    11     9    10  am
    12    10    11   2
    13    10    12   1
    14    12    13   1
    15    12    17   1
    16    13    14   1
    17    14    15  ar
    18    14    16  ar
    19    17    18  am
    20    18    19   1
    21    18    20   2
    22    21    22  ar
    23    21    23  ar
    24    21    24   1
    25    24    25   1
    26    25    26   1
    27    25    27   1
    28    27    28   2
    29    27    29  am
    30    29    30   1
    31    30    31   1
    32    30    32   1
    33    32    33   2
    34    32    34  am
    35     1    35   1
    36     2    36   1
    37     3    37   1
    38     4    38   1
    39     5    39   1
    40     7    40   1
    41     7    41   1
    42     8    42   1
    43     9    43   1
    44    12    44   1
    45    13    45   1
    46    13    46   1
    47    17    47   1
    48    19    48   1
    49    19    49   1
    50    19    50   1
    51    24    51   1
    52    24    52   1
    53    25    53   1
    54    26    54   1
    55    26    55   1
    56    26    56   1
    57    29    57   1
    58    30    58   1
    59    31    59   1
    60    31    60   1
    61    31    61   1
    62    34    62   1
    63    34    63   1
@<TRIPOS>SUBSTRUCTURE
     1  RX4      1

