@<TRIPOS>MOLECULE
2xbv_ligand_011
    58    61
SMALL
GAST_HUCK
****
This file was generated by PARSER (from files_GN.cpp)

@<TRIPOS>ATOM
      1 C1         10.7853   65.8721    3.8206 C.3         1 XBV       0.1199
      2 C2         10.1581   65.3805    2.4788 C.3         1 XBV       0.1186
      3 C3          9.3245   66.6199    2.0711 C.3         1 XBV      -0.0085
      4 N4         10.2022   67.7662    2.4035 N.4         1 XBV       0.2432
      5 C5         10.9446   67.4065    3.6393 C.3         1 XBV      -0.0084
      6 C6         12.0130   65.2153    4.2592 C.2         1 XBV       0.2190
      7 C7          9.4417   64.1047    2.5625 C.2         1 XBV       0.2118
      8 N8          8.3899   63.8554    1.7902 N.am        1 XBV      -0.2375
      9 O9          9.8507   63.2622    3.3568 O.2         1 XBV      -0.3856
     10 O10        12.6387   64.5227    3.4680 O.2         1 XBV      -0.3820
     11 N11        12.4001   65.3600    5.5242 N.am        1 XBV      -0.2172
     12 C12        13.4775   64.8081    6.1354 C.ar        1 XBV       0.1394
     13 N13        14.3514   63.9833    5.4903 N.ar        1 XBV      -0.2842
     14 C14        15.7116   63.6912    7.4268 C.ar        1 XBV       0.0509
     15 C15        14.8327   64.5299    8.1399 C.ar        1 XBV      -0.0424
     16 C16        15.4388   63.4225    6.0741 C.ar        1 XBV       0.0070
     17 C17        13.7143   65.0902    7.4980 C.ar        1 XBV      -0.0126
     18 CL1        17.0820   63.0390    8.1716 Cl          1 XBV      -0.0753
     19 C19         7.6240   62.7221    1.7176 C.ar        1 XBV       0.0920
     20 C20         6.2217   62.9089    1.7323 C.ar        1 XBV      -0.0478
     21 C21         5.8533   60.5025    1.5228 C.ar        1 XBV       0.0960
     22 C22         7.2502   60.3094    1.4823 C.ar        1 XBV      -0.0056
     23 C23         5.3462   61.8132    1.6412 C.ar        1 XBV      -0.0431
     24 C24         8.1299   61.4058    1.5702 C.ar        1 XBV       0.1465
     25 N25         4.9982   59.4363    1.4005 N.am        1 XBV      -0.1717
     26 C26         4.5847   58.7903    2.5315 C.2         1 XBV       0.0799
     27 C27         3.2977   57.3373    1.2194 C.2         1 XBV      -0.0778
     28 C28         3.6979   57.9675    0.0974 C.2         1 XBV      -0.0111
     29 C29         3.7405   57.7438    2.4452 C.2         1 XBV      -0.0402
     30 C30         4.5597   59.0285    0.1860 C.2         1 XBV       0.2151
     31 O31         4.9015   59.5785   -0.8555 O.2         1 XBV      -0.4155
     32 F32         9.4073   61.1724    1.4341 F           1 XBV      -0.1956
     33 C33         9.5997   69.1338    2.3332 C.3         1 XBV       0.0304
     34 C34         8.3530   69.4357    3.2135 C.3         1 XBV       0.2778
     35 F35         8.5896   69.2873    4.5593 F           1 XBV      -0.2034
     36 F36         7.9388   70.7302    3.0044 F           1 XBV      -0.2034
     37 H1         10.0348   65.7175    4.6038 H           1 XBV       0.0628
     38 H2         10.9446   65.2575    1.7251 H           1 XBV       0.0626
     39 H3          8.3924   66.6401    2.6460 H           1 XBV       0.0845
     40 H4          9.0900   66.6114    1.0012 H           1 XBV       0.0845
     41 H5         10.9133   67.7662    1.6677 H           1 XBV       0.2039
     42 H6         11.9903   67.6994    3.4969 H           1 XBV       0.0845
     43 H7         10.5663   67.9282    4.5239 H           1 XBV       0.0845
     44 H8          8.0672   64.6004    1.2587 H           1 XBV       0.2221
     45 H9         11.8371   65.9248    6.0794 H           1 XBV       0.2314
     46 H10        15.0169   64.7419    9.1225 H           1 XBV       0.0697
     47 H11        16.0538   62.8181    5.5218 H           1 XBV       0.0781
     48 H12        13.0856   65.7047    8.0213 H           1 XBV       0.0598
     49 H13         5.8288   63.8509    1.8187 H           1 XBV       0.0473
     50 H14         7.6286   59.3669    1.3646 H           1 XBV       0.0513
     51 H15         4.3343   61.9734    1.6584 H           1 XBV       0.0496
     52 H16         4.8979   59.0784    3.4345 H           1 XBV       0.1228
     53 H17         2.6729   56.5668    1.1560 H           1 XBV       0.0636
     54 H18         3.3650   57.6532   -0.7874 H           1 XBV       0.0399
     55 H19         3.4424   57.2678    3.2639 H           1 XBV       0.0371
     56 H20         9.3139   69.3077    1.2893 H           1 XBV       0.0871
     57 H21        10.3802   69.8669    2.5618 H           1 XBV       0.0871
     58 H22         7.5290   68.7763    2.9327 H           1 XBV       0.1075
@<TRIPOS>BOND
     1     2     1   1
     2     1     5   1
     3     1     6   1
     4     2     3   1
     5     7     2   1
     6     3     4   1
     7     4     5   1
     8     4    33   1
     9     6    10   2
    10     6    11  am
    11     8     7  am
    12     7     9   2
    13    19     8   1
    14    11    12   1
    15    12    13  ar
    16    12    17  ar
    17    13    16  ar
    18    15    14  ar
    19    16    14  ar
    20    14    18   1
    21    17    15  ar
    22    20    19  ar
    23    24    19  ar
    24    23    20  ar
    25    21    22  ar
    26    21    23  ar
    27    25    21   1
    28    22    24  ar
    29    24    32   1
    30    26    25   1
    31    25    30  am
    32    29    26   2
    33    27    28   2
    34    27    29   1
    35    28    30   1
    36    30    31   2
    37    33    34   1
    38    34    35   1
    39    34    36   1
    40     1    37   1
    41     2    38   1
    42     3    39   1
    43     3    40   1
    44     4    41   1
    45     5    42   1
    46     5    43   1
    47     8    44   1
    48    11    45   1
    49    15    46   1
    50    16    47   1
    51    17    48   1
    52    20    49   1
    53    22    50   1
    54    23    51   1
    55    26    52   1
    56    27    53   1
    57    28    54   1
    58    29    55   1
    59    33    56   1
    60    33    57   1
    61    34    58   1
@<TRIPOS>SUBSTRUCTURE
     1  XBV      1

