@<TRIPOS>MOLECULE
2xbv_ligand_003
    58    61
SMALL
GAST_HUCK
****
This file was generated by PARSER (from files_GN.cpp)

@<TRIPOS>ATOM
      1 C1         13.2893   64.9743    2.3222 C.3         1 XBV       0.1199
      2 C2         11.7751   65.1394    2.6509 C.3         1 XBV       0.1186
      3 C3         11.1945   63.7676    2.2403 C.3         1 XBV      -0.0085
      4 N4         12.0456   63.1972    1.1664 N.4         1 XBV       0.2432
      5 C5         13.2093   64.1111    1.0295 C.3         1 XBV      -0.0084
      6 C6         14.1519   64.3932    3.3671 C.2         1 XBV       0.2190
      7 C7         11.1481   66.2849    1.9865 C.2         1 XBV       0.2118
      8 N8         11.1022   67.4546    2.6216 N.am        1 XBV      -0.2375
      9 O9         10.7805   66.1916    0.8204 O.2         1 XBV      -0.3856
     10 O10        15.2458   63.9711    3.0153 O.2         1 XBV      -0.3820
     11 N11        13.8947   64.5684    4.6647 N.am        1 XBV      -0.2172
     12 C12        14.6494   64.2580    5.7447 C.ar        1 XBV       0.1394
     13 N13        15.8574   63.6271    5.6690 N.ar        1 XBV      -0.2842
     14 C14        16.2185   63.7656    8.0272 C.ar        1 XBV       0.0509
     15 C15        14.9759   64.4137    8.1611 C.ar        1 XBV      -0.0424
     16 C16        16.6390   63.3657    6.7446 C.ar        1 XBV       0.0070
     17 C17        14.1825   64.6510    7.0222 C.ar        1 XBV      -0.0126
     18 CL1        17.2046   63.4922    9.3763 Cl          1 XBV      -0.0753
     19 C19        10.4715   68.6103    2.2591 C.ar        1 XBV       0.0920
     20 C20        11.0060   69.8238    2.7461 C.ar        1 XBV      -0.0478
     21 C21         9.1397   71.0873    1.7935 C.ar        1 XBV       0.0960
     22 C22         8.6017   69.8731    1.3068 C.ar        1 XBV      -0.0056
     23 C23        10.3663   71.0451    2.5000 C.ar        1 XBV      -0.0431
     24 C24         9.2505   68.6519    1.5347 C.ar        1 XBV       0.1465
     25 N25         8.4587   72.2805    1.6423 N.am        1 XBV      -0.1717
     26 C26         8.2244   72.7593    0.3791 C.2         1 XBV       0.0799
     27 C27         7.1046   74.6068    1.2819 C.2         1 XBV      -0.0778
     28 C28         7.3308   74.1562    2.5288 C.2         1 XBV      -0.0111
     29 C29         7.5482   73.9062    0.1960 C.2         1 XBV      -0.0402
     30 C30         8.0040   72.9777    2.7119 C.2         1 XBV       0.2151
     31 O31         8.1286   72.5691    3.8645 O.2         1 XBV      -0.4155
     32 F32         8.6496   67.5623    1.1397 F           1 XBV      -0.1956
     33 C33        11.4919   62.7203   -0.1582 C.3         1 XBV       0.0304
     34 C34         9.9794   62.7664   -0.4913 C.3         1 XBV       0.2778
     35 F35         9.2150   62.0936    0.4354 F           1 XBV      -0.2034
     36 F36         9.5063   64.0477   -0.6773 F           1 XBV      -0.2034
     37 H1         13.7261   65.9529    2.0799 H           1 XBV       0.0628
     38 H2         11.5881   65.2549    3.7195 H           1 XBV       0.0626
     39 H3         10.1377   63.8605    2.0238 H           1 XBV       0.0845
     40 H4         11.2668   63.0818    3.0890 H           1 XBV       0.0845
     41 H5         12.4433   62.3495    1.5898 H           1 XBV       0.2039
     42 H6         14.1110   63.5292    0.8290 H           1 XBV       0.0845
     43 H7         13.0860   64.8045    0.1939 H           1 XBV       0.0845
     44 H8         11.6059   67.4998    3.4544 H           1 XBV       0.2221
     45 H9         13.0645   65.0240    4.8664 H           1 XBV       0.2314
     46 H10        14.6533   64.7348    9.0799 H           1 XBV       0.0697
     47 H11        17.5376   62.8938    6.6117 H           1 XBV       0.0781
     48 H12        13.2896   65.1313    7.1248 H           1 XBV       0.0598
     49 H13        11.8724   69.8217    3.2932 H           1 XBV       0.0473
     50 H14         7.7015   69.8765    0.8204 H           1 XBV       0.0513
     51 H15        10.7779   71.9109    2.8591 H           1 XBV       0.0496
     52 H16         8.5570   72.2668   -0.4246 H           1 XBV       0.1228
     53 H17         6.6131   75.4591    1.1470 H           1 XBV       0.0636
     54 H18         7.0017   74.6804    3.3091 H           1 XBV       0.0399
     55 H19         7.3755   74.2493   -0.7217 H           1 XBV       0.0371
     56 H20        11.7960   61.6741   -0.2405 H           1 XBV       0.0871
     57 H21        11.9771   63.2183   -1.0025 H           1 XBV       0.0871
     58 H22         9.8280   62.2556   -1.4460 H           1 XBV       0.1075
@<TRIPOS>BOND
     1     2     1   1
     2     1     5   1
     3     1     6   1
     4     2     3   1
     5     7     2   1
     6     3     4   1
     7     4     5   1
     8     4    33   1
     9     6    10   2
    10     6    11  am
    11     8     7  am
    12     7     9   2
    13    19     8   1
    14    11    12   1
    15    12    13  ar
    16    12    17  ar
    17    13    16  ar
    18    15    14  ar
    19    16    14  ar
    20    14    18   1
    21    17    15  ar
    22    20    19  ar
    23    24    19  ar
    24    23    20  ar
    25    21    22  ar
    26    21    23  ar
    27    25    21   1
    28    22    24  ar
    29    24    32   1
    30    26    25   1
    31    25    30  am
    32    29    26   2
    33    27    28   2
    34    27    29   1
    35    28    30   1
    36    30    31   2
    37    33    34   1
    38    34    35   1
    39    34    36   1
    40     1    37   1
    41     2    38   1
    42     3    39   1
    43     3    40   1
    44     4    41   1
    45     5    42   1
    46     5    43   1
    47     8    44   1
    48    11    45   1
    49    15    46   1
    50    16    47   1
    51    17    48   1
    52    20    49   1
    53    22    50   1
    54    23    51   1
    55    26    52   1
    56    27    53   1
    57    28    54   1
    58    29    55   1
    59    33    56   1
    60    33    57   1
    61    34    58   1
@<TRIPOS>SUBSTRUCTURE
     1  XBV      1

