@<TRIPOS>MOLECULE
2xbv_ligand_034
    58    61
SMALL
GAST_HUCK
****
This file was generated by PARSER (from files_GN.cpp)

@<TRIPOS>ATOM
      1 C1         10.5972   66.5099    2.5246 C.3         1 XBV       0.1199
      2 C2         10.3241   67.8356    3.3025 C.3         1 XBV       0.1186
      3 C3          9.0717   67.5160    4.1782 C.3         1 XBV      -0.0085
      4 N4          8.6646   66.1066    3.9315 N.4         1 XBV       0.2432
      5 C5          9.2613   65.7393    2.6270 C.3         1 XBV      -0.0084
      6 C6         11.7195   65.7084    3.0229 C.2         1 XBV       0.2190
      7 C7         10.1512   68.9975    2.4354 C.2         1 XBV       0.2118
      8 N8          9.0793   69.0778    1.6445 N.am        1 XBV      -0.2375
      9 O9         11.0310   69.8519    2.4111 O.2         1 XBV      -0.3856
     10 O10        12.4528   65.1776    2.1923 O.2         1 XBV      -0.3820
     11 N11        11.9379   65.5752    4.3259 N.am        1 XBV      -0.2172
     12 C12        12.9335   64.8923    4.9503 C.ar        1 XBV       0.1394
     13 N13        13.8360   64.1045    4.2983 N.ar        1 XBV      -0.2842
     14 C14        14.9864   63.5477    6.3177 C.ar        1 XBV       0.0509
     15 C15        14.0795   64.3535    7.0299 C.ar        1 XBV      -0.0424
     16 C16        14.8396   63.4323    4.9225 C.ar        1 XBV       0.0070
     17 C17        13.0412   65.0203    6.3481 C.ar        1 XBV      -0.0126
     18 CL1        16.2370   62.7490    7.1292 Cl          1 XBV      -0.0753
     19 C19         8.6516   70.0985    0.8443 C.ar        1 XBV       0.0920
     20 C20         7.8931   69.7309   -0.2918 C.ar        1 XBV      -0.0478
     21 C21         7.6789   72.0660   -0.9510 C.ar        1 XBV       0.0960
     22 C22         8.3595   72.4487    0.2186 C.ar        1 XBV      -0.0056
     23 C23         7.4321   70.7003   -1.1922 C.ar        1 XBV      -0.0431
     24 C24         8.8387   71.4820    1.1219 C.ar        1 XBV       0.1465
     25 N25         7.2569   73.0248   -1.8301 N.am        1 XBV      -0.1717
     26 C26         8.0861   73.3776   -2.8600 C.2         1 XBV       0.0799
     27 C27         6.4956   74.9357   -3.5867 C.2         1 XBV      -0.0778
     28 C28         5.6701   74.5914   -2.5779 C.2         1 XBV      -0.0111
     29 C29         7.7133   74.3348   -3.7296 C.2         1 XBV      -0.0402
     30 C30         6.0557   73.6241   -1.6895 C.2         1 XBV       0.2151
     31 O31         5.2823   73.3433   -0.7808 O.2         1 XBV      -0.4155
     32 F32         9.4105   71.9018    2.2159 F           1 XBV      -0.1956
     33 C33         7.1934   65.8323    4.0798 C.3         1 XBV       0.0304
     34 C34         6.9092   64.4335    4.6795 C.3         1 XBV       0.2778
     35 F35         5.6407   64.3598    5.2126 F           1 XBV      -0.2034
     36 F36         7.0172   63.4431    3.7337 F           1 XBV      -0.2034
     37 H1         10.7678   66.7156    1.4631 H           1 XBV       0.0628
     38 H2         11.1702   68.0393    3.9742 H           1 XBV       0.0626
     39 H3          8.2500   68.2036    3.9527 H           1 XBV       0.0845
     40 H4          9.3117   67.6375    5.2406 H           1 XBV       0.0845
     41 H5          9.1258   65.5388    4.6462 H           1 XBV       0.2039
     42 H6          9.4010   64.6505    2.5558 H           1 XBV       0.0845
     43 H7          8.5961   66.0418    1.8094 H           1 XBV       0.0845
     44 H8          8.5360   68.2668    1.6296 H           1 XBV       0.2221
     45 H9         11.3401   66.0645    4.9137 H           1 XBV       0.2314
     46 H10        14.1696   64.4672    8.0425 H           1 XBV       0.0697
     47 H11        15.4792   62.8636    4.3694 H           1 XBV       0.0781
     48 H12        12.3904   65.6079    6.8761 H           1 XBV       0.0598
     49 H13         7.7084   68.7435   -0.4983 H           1 XBV       0.0473
     50 H14         8.5172   73.4411    0.4204 H           1 XBV       0.0513
     51 H15         6.9127   70.4184   -2.0334 H           1 XBV       0.0496
     52 H16         8.9827   72.9491   -2.9702 H           1 XBV       0.1228
     53 H17         6.2211   75.6379   -4.2323 H           1 XBV       0.0636
     54 H18         4.7876   75.0424   -2.4910 H           1 XBV       0.0399
     55 H19         8.3228   74.6008   -4.4778 H           1 XBV       0.0371
     56 H20         6.6785   65.9357    3.1233 H           1 XBV       0.0871
     57 H21         6.7543   66.5686    4.7587 H           1 XBV       0.0871
     58 H22         7.6286   64.2432    5.4770 H           1 XBV       0.1075
@<TRIPOS>BOND
     1     2     1   1
     2     1     5   1
     3     1     6   1
     4     2     3   1
     5     7     2   1
     6     3     4   1
     7     4     5   1
     8     4    33   1
     9     6    10   2
    10     6    11  am
    11     8     7  am
    12     7     9   2
    13    19     8   1
    14    11    12   1
    15    12    13  ar
    16    12    17  ar
    17    13    16  ar
    18    15    14  ar
    19    16    14  ar
    20    14    18   1
    21    17    15  ar
    22    20    19  ar
    23    24    19  ar
    24    23    20  ar
    25    21    22  ar
    26    21    23  ar
    27    25    21   1
    28    22    24  ar
    29    24    32   1
    30    26    25   1
    31    25    30  am
    32    29    26   2
    33    27    28   2
    34    27    29   1
    35    28    30   1
    36    30    31   2
    37    33    34   1
    38    34    35   1
    39    34    36   1
    40     1    37   1
    41     2    38   1
    42     3    39   1
    43     3    40   1
    44     4    41   1
    45     5    42   1
    46     5    43   1
    47     8    44   1
    48    11    45   1
    49    15    46   1
    50    16    47   1
    51    17    48   1
    52    20    49   1
    53    22    50   1
    54    23    51   1
    55    26    52   1
    56    27    53   1
    57    28    54   1
    58    29    55   1
    59    33    56   1
    60    33    57   1
    61    34    58   1
@<TRIPOS>SUBSTRUCTURE
     1  XBV      1

