@<TRIPOS>MOLECULE
2xbv_ligand_058
    58    61
SMALL
GAST_HUCK
****
This file was generated by PARSER (from files_GN.cpp)

@<TRIPOS>ATOM
      1 C1         11.9433   65.8582    2.7807 C.3         1 XBV       0.1199
      2 C2         10.5495   65.6135    3.4553 C.3         1 XBV       0.1186
      3 C3          9.9932   64.3538    2.7284 C.3         1 XBV      -0.0085
      4 N4         10.9416   64.0118    1.6376 N.4         1 XBV       0.2432
      5 C5         11.7112   65.2495    1.3738 C.3         1 XBV      -0.0084
      6 C6         13.0785   65.2964    3.5268 C.2         1 XBV       0.2190
      7 C7          9.6485   66.7762    3.3771 C.2         1 XBV       0.2118
      8 N8          9.3220   67.4714    4.4645 N.am        1 XBV      -0.2375
      9 O9          9.2265   67.1263    2.2773 O.2         1 XBV      -0.3856
     10 O10        13.9666   64.6943    2.9252 O.2         1 XBV      -0.3820
     11 N11        13.1802   65.5267    4.8304 N.am        1 XBV      -0.2172
     12 C12        14.1242   65.0990    5.7083 C.ar        1 XBV       0.1394
     13 N13        15.2517   64.4266    5.3257 N.ar        1 XBV      -0.2842
     14 C14        16.0031   64.1700    7.5817 C.ar        1 XBV       0.0509
     15 C15        14.8488   64.8468    8.0202 C.ar        1 XBV      -0.0424
     16 C16        16.1830   63.9695    6.2008 C.ar        1 XBV       0.0070
     17 C17        13.9158   65.3271    7.0849 C.ar        1 XBV      -0.0126
     18 CL1        17.1434   63.5834    8.6823 Cl          1 XBV      -0.0753
     19 C19         8.4412   68.5178    4.4969 C.ar        1 XBV       0.0920
     20 C20         8.9276   69.8418    4.4051 C.ar        1 XBV      -0.0478
     21 C21         6.6389   70.7248    4.5296 C.ar        1 XBV       0.0960
     22 C22         6.1611   69.3972    4.6364 C.ar        1 XBV      -0.0056
     23 C23         8.0357   70.9265    4.4071 C.ar        1 XBV      -0.0431
     24 C24         7.0543   68.3042    4.6114 C.ar        1 XBV       0.1465
     25 N25         5.7621   71.7961    4.5342 N.am        1 XBV      -0.1717
     26 C26         4.7596   71.8353    5.4683 C.2         1 XBV       0.0799
     27 C27         4.0027   73.8674    4.5912 C.2         1 XBV      -0.0778
     28 C28         4.9851   73.8548    3.6651 C.2         1 XBV      -0.0111
     29 C29         3.8838   72.8567    5.4992 C.2         1 XBV      -0.0402
     30 C30         5.8707   72.8076    3.6385 C.2         1 XBV       0.2151
     31 O31         6.7216   72.8211    2.7535 O.2         1 XBV      -0.4155
     32 F32         6.5740   67.0919    4.7166 F           1 XBV      -0.1956
     33 C33        10.3096   63.3434    0.4586 C.3         1 XBV       0.0304
     34 C34        11.3146   62.7223   -0.5425 C.3         1 XBV       0.2778
     35 F35        12.0105   63.6896   -1.2277 F           1 XBV      -0.2034
     36 F36        12.2045   61.8964    0.1032 F           1 XBV      -0.2034
     37 H1         12.1499   66.9272    2.6788 H           1 XBV       0.0628
     38 H2         10.6705   65.3668    4.5162 H           1 XBV       0.0626
     39 H3          8.9771   64.5221    2.3519 H           1 XBV       0.0845
     40 H4          9.9565   63.5107    3.4195 H           1 XBV       0.0845
     41 H5         11.6060   63.3408    2.0346 H           1 XBV       0.2039
     42 H6         12.6456   65.0390    0.8489 H           1 XBV       0.0845
     43 H7         11.1340   65.9405    0.7537 H           1 XBV       0.0845
     44 H8          9.7480   67.2345    5.3066 H           1 XBV       0.2221
     45 H9         12.4467   66.0367    5.2202 H           1 XBV       0.2314
     46 H10        14.6865   64.9951    9.0148 H           1 XBV       0.0697
     47 H11        17.0087   63.4824    5.8512 H           1 XBV       0.0781
     48 H12        13.0750   65.8122    7.4134 H           1 XBV       0.0598
     49 H13         9.9305   70.0189    4.3284 H           1 XBV       0.0473
     50 H14         5.1555   69.2277    4.7226 H           1 XBV       0.0513
     51 H15         8.4121   71.8758    4.3222 H           1 XBV       0.0496
     52 H16         4.6508   71.1169    6.1434 H           1 XBV       0.1228
     53 H17         3.3586   74.6257    4.6166 H           1 XBV       0.0636
     54 H18         5.0616   74.6050    3.0108 H           1 XBV       0.0399
     55 H19         3.1646   72.8790    6.1864 H           1 XBV       0.0371
     56 H20         9.6529   64.0411   -0.0726 H           1 XBV       0.0871
     57 H21         9.6816   62.5212    0.8203 H           1 XBV       0.0871
     58 H22        10.7681   62.1223   -1.2755 H           1 XBV       0.1075
@<TRIPOS>BOND
     1     2     1   1
     2     1     5   1
     3     1     6   1
     4     2     3   1
     5     7     2   1
     6     3     4   1
     7     4     5   1
     8     4    33   1
     9     6    10   2
    10     6    11  am
    11     8     7  am
    12     7     9   2
    13    19     8   1
    14    11    12   1
    15    12    13  ar
    16    12    17  ar
    17    13    16  ar
    18    15    14  ar
    19    16    14  ar
    20    14    18   1
    21    17    15  ar
    22    20    19  ar
    23    24    19  ar
    24    23    20  ar
    25    21    22  ar
    26    21    23  ar
    27    25    21   1
    28    22    24  ar
    29    24    32   1
    30    26    25   1
    31    25    30  am
    32    29    26   2
    33    27    28   2
    34    27    29   1
    35    28    30   1
    36    30    31   2
    37    33    34   1
    38    34    35   1
    39    34    36   1
    40     1    37   1
    41     2    38   1
    42     3    39   1
    43     3    40   1
    44     4    41   1
    45     5    42   1
    46     5    43   1
    47     8    44   1
    48    11    45   1
    49    15    46   1
    50    16    47   1
    51    17    48   1
    52    20    49   1
    53    22    50   1
    54    23    51   1
    55    26    52   1
    56    27    53   1
    57    28    54   1
    58    29    55   1
    59    33    56   1
    60    33    57   1
    61    34    58   1
@<TRIPOS>SUBSTRUCTURE
     1  XBV      1

