@<TRIPOS>MOLECULE
2xbv_ligand_027
    58    61
SMALL
GAST_HUCK
****
This file was generated by PARSER (from files_GN.cpp)

@<TRIPOS>ATOM
      1 C1         13.0150   64.7270    2.0607 C.3         1 XBV       0.1199
      2 C2         11.5275   64.8711    2.5246 C.3         1 XBV       0.1186
      3 C3         10.7271   64.3315    1.3179 C.3         1 XBV      -0.0085
      4 N4         11.5426   63.2175    0.8140 N.4         1 XBV       0.2432
      5 C5         12.9429   63.6929    0.8887 C.3         1 XBV      -0.0084
      6 C6         14.0027   64.4104    3.1087 C.2         1 XBV       0.2190
      7 C7         11.1294   66.2020    2.9974 C.2         1 XBV       0.2118
      8 N8          9.9867   66.7588    2.6074 N.am        1 XBV      -0.2375
      9 O9         11.8694   66.7918    3.7757 O.2         1 XBV      -0.3856
     10 O10        15.1360   64.1143    2.7489 O.2         1 XBV      -0.3820
     11 N11        13.7491   64.6050    4.4035 N.am        1 XBV      -0.2172
     12 C12        14.5536   64.4465    5.4874 C.ar        1 XBV       0.1394
     13 N13        15.8048   63.9117    5.4150 N.ar        1 XBV      -0.2842
     14 C14        16.1709   64.1352    7.7655 C.ar        1 XBV       0.0509
     15 C15        14.8908   64.7065    7.8917 C.ar        1 XBV      -0.0424
     16 C16        16.6145   63.7406    6.4907 C.ar        1 XBV       0.0070
     17 C17        14.0763   64.8574    6.7526 C.ar        1 XBV      -0.0126
     18 CL1        17.1639   63.9134    9.1157 Cl          1 XBV      -0.0753
     19 C19         9.4592   67.9555    2.9860 C.ar        1 XBV       0.0920
     20 C20         8.9644   68.7924    1.9654 C.ar        1 XBV      -0.0478
     21 C21         8.2336   70.4408    3.6218 C.ar        1 XBV       0.0960
     22 C22         8.7011   69.5845    4.6456 C.ar        1 XBV      -0.0056
     23 C23         8.3732   70.0280    2.2778 C.ar        1 XBV      -0.0431
     24 C24         9.3026   68.3501    4.3354 C.ar        1 XBV       0.1465
     25 N25         7.6385   71.6476    3.9251 N.am        1 XBV      -0.1717
     26 C26         8.2236   72.8013    3.4766 C.2         1 XBV       0.0799
     27 C27         6.5579   74.0597    4.5366 C.2         1 XBV      -0.0778
     28 C28         5.9560   72.9324    4.9663 C.2         1 XBV      -0.0111
     29 C29         7.6929   74.0018    3.7820 C.2         1 XBV      -0.0402
     30 C30         6.4968   71.7132    4.6496 C.2         1 XBV       0.2151
     31 O31         5.8954   70.7113    5.0235 O.2         1 XBV      -0.4155
     32 F32         9.6565   67.5600    5.3120 F           1 XBV      -0.1956
     33 C33        11.0640   62.5369   -0.4305 C.3         1 XBV       0.0304
     34 C34        10.8314   63.3290   -1.7463 C.3         1 XBV       0.2778
     35 F35         9.8398   64.2709   -1.6307 F           1 XBV      -0.2034
     36 F36        11.9695   63.9350   -2.2128 F           1 XBV      -0.2034
     37 H1         13.3339   65.6819    1.6235 H           1 XBV       0.0628
     38 H2         11.3478   64.1717    3.3487 H           1 XBV       0.0626
     39 H3         10.6206   65.1120    0.5618 H           1 XBV       0.0845
     40 H4          9.7383   63.9840    1.6272 H           1 XBV       0.0845
     41 H5         11.4782   62.4986    1.5380 H           1 XBV       0.2039
     42 H6         13.5933   62.8314    1.0454 H           1 XBV       0.0845
     43 H7         13.2519   64.1740   -0.0412 H           1 XBV       0.0845
     44 H8          9.4941   66.2931    1.9153 H           1 XBV       0.2221
     45 H9         12.8650   64.9370    4.6116 H           1 XBV       0.2314
     46 H10        14.5510   65.0193    8.8067 H           1 XBV       0.0697
     47 H11        17.5391   63.3246    6.3645 H           1 XBV       0.0781
     48 H12        13.1494   65.2799    6.8497 H           1 XBV       0.0598
     49 H13         9.0467   68.5156    0.9834 H           1 XBV       0.0473
     50 H14         8.5964   69.8576    5.6257 H           1 XBV       0.0513
     51 H15         8.0322   70.6246    1.5200 H           1 XBV       0.0496
     52 H16         9.0532   72.7770    2.9242 H           1 XBV       0.1228
     53 H17         6.1701   74.9443    4.7714 H           1 XBV       0.0636
     54 H18         5.1285   72.9953    5.5152 H           1 XBV       0.0399
     55 H19         8.1252   74.8391    3.4631 H           1 XBV       0.0371
     56 H20        10.1140   62.0571   -0.1802 H           1 XBV       0.0871
     57 H21        11.7620   61.7260   -0.6509 H           1 XBV       0.0871
     58 H22        10.4983   62.6177   -2.5033 H           1 XBV       0.1075
@<TRIPOS>BOND
     1     2     1   1
     2     1     5   1
     3     1     6   1
     4     2     3   1
     5     7     2   1
     6     3     4   1
     7     4     5   1
     8     4    33   1
     9     6    10   2
    10     6    11  am
    11     8     7  am
    12     7     9   2
    13    19     8   1
    14    11    12   1
    15    12    13  ar
    16    12    17  ar
    17    13    16  ar
    18    15    14  ar
    19    16    14  ar
    20    14    18   1
    21    17    15  ar
    22    20    19  ar
    23    24    19  ar
    24    23    20  ar
    25    21    22  ar
    26    21    23  ar
    27    25    21   1
    28    22    24  ar
    29    24    32   1
    30    26    25   1
    31    25    30  am
    32    29    26   2
    33    27    28   2
    34    27    29   1
    35    28    30   1
    36    30    31   2
    37    33    34   1
    38    34    35   1
    39    34    36   1
    40     1    37   1
    41     2    38   1
    42     3    39   1
    43     3    40   1
    44     4    41   1
    45     5    42   1
    46     5    43   1
    47     8    44   1
    48    11    45   1
    49    15    46   1
    50    16    47   1
    51    17    48   1
    52    20    49   1
    53    22    50   1
    54    23    51   1
    55    26    52   1
    56    27    53   1
    57    28    54   1
    58    29    55   1
    59    33    56   1
    60    33    57   1
    61    34    58   1
@<TRIPOS>SUBSTRUCTURE
     1  XBV      1

