@<TRIPOS>MOLECULE
2xbv_ligand_057
    58    61
SMALL
GAST_HUCK
****
This file was generated by PARSER (from files_GN.cpp)

@<TRIPOS>ATOM
      1 C1         10.3621   65.6030    3.0785 C.3         1 XBV       0.1199
      2 C2          9.0197   64.8267    3.3213 C.3         1 XBV       0.1186
      3 C3          8.3184   64.8886    1.9428 C.3         1 XBV      -0.0085
      4 N4          9.4201   64.8710    0.9593 N.4         1 XBV       0.2432
      5 C5         10.4451   65.7743    1.5329 C.3         1 XBV      -0.0084
      6 C6         11.5257   64.9528    3.6884 C.2         1 XBV       0.2190
      7 C7          8.1338   65.2904    4.3957 C.2         1 XBV       0.2118
      8 N8          7.1122   64.5318    4.7774 N.am        1 XBV      -0.2375
      9 O9          8.3584   66.3589    4.9479 O.2         1 XBV      -0.3856
     10 O10        12.0040   63.9764    3.1187 O.2         1 XBV      -0.3820
     11 N11        11.9461   65.3250    4.8968 N.am        1 XBV      -0.2172
     12 C12        13.0306   64.8786    5.5789 C.ar        1 XBV       0.1394
     13 N13        13.9468   64.0291    5.0339 N.ar        1 XBV      -0.2842
     14 C14        15.2578   63.9474    7.0238 C.ar        1 XBV       0.0509
     15 C15        14.3464   64.8327    7.6321 C.ar        1 XBV      -0.0424
     16 C16        15.0363   63.5582    5.6919 C.ar        1 XBV       0.0070
     17 C17        13.2348   65.3089    6.9058 C.ar        1 XBV      -0.0126
     18 CL1        16.6019   63.3650    7.8751 Cl          1 XBV      -0.0753
     19 C19         6.1099   64.8160    5.6667 C.ar        1 XBV       0.0920
     20 C20         5.5083   63.7191    6.3272 C.ar        1 XBV      -0.0478
     21 C21         3.9849   65.2079    7.5371 C.ar        1 XBV       0.0960
     22 C22         4.5688   66.3053    6.8673 C.ar        1 XBV      -0.0056
     23 C23         4.4596   63.9073    7.2483 C.ar        1 XBV      -0.0431
     24 C24         5.5956   66.1142    5.9237 C.ar        1 XBV       0.1465
     25 N25         2.9656   65.4229    8.4340 N.am        1 XBV      -0.1717
     26 C26         3.2415   65.3283    9.7677 C.2         1 XBV       0.0799
     27 C27         1.0569   66.0317   10.2517 C.2         1 XBV      -0.0778
     28 C28         0.7709   66.1145    8.9368 C.2         1 XBV      -0.0111
     29 C29         2.2923   65.6368   10.6782 C.2         1 XBV      -0.0402
     30 C30         1.7371   65.8028    8.0184 C.2         1 XBV       0.2151
     31 O31         1.4373   65.8951    6.8310 O.2         1 XBV      -0.4155
     32 F32         6.0039   67.1597    5.2473 F           1 XBV      -0.1956
     33 C33         9.0726   65.1620   -0.4651 C.3         1 XBV       0.0304
     34 C34         7.9829   64.2589   -1.0969 C.3         1 XBV       0.2778
     35 F35         8.3461   62.9350   -1.0585 F           1 XBV      -0.2034
     36 F36         6.7677   64.4087   -0.4677 F           1 XBV      -0.2034
     37 H1         10.3001   66.6163    3.4889 H           1 XBV       0.0628
     38 H2          9.2582   63.7731    3.5067 H           1 XBV       0.0626
     39 H3          7.7265   65.8002    1.8416 H           1 XBV       0.0845
     40 H4          7.6674   64.0254    1.8112 H           1 XBV       0.0845
     41 H5          9.8169   63.9292    0.9796 H           1 XBV       0.2039
     42 H6         11.4336   65.5444    1.1227 H           1 XBV       0.0845
     43 H7         10.2201   66.8207    1.2772 H           1 XBV       0.0845
     44 H8          7.1156   63.6291    4.4190 H           1 XBV       0.2221
     45 H9         11.4076   65.9905    5.3558 H           1 XBV       0.2314
     46 H10        14.4858   65.1344    8.6045 H           1 XBV       0.0697
     47 H11        15.6762   62.9251    5.2101 H           1 XBV       0.0781
     48 H12        12.5786   65.9503    7.3587 H           1 XBV       0.0598
     49 H13         5.8359   62.7719    6.1391 H           1 XBV       0.0473
     50 H14         4.2254   67.2491    7.0645 H           1 XBV       0.0513
     51 H15         4.0400   63.0956    7.6980 H           1 XBV       0.0496
     52 H16         4.1394   65.0619   10.0960 H           1 XBV       0.1228
     53 H17         0.3578   66.2648   10.9224 H           1 XBV       0.0636
     54 H18        -0.1349   66.4117    8.6470 H           1 XBV       0.0399
     55 H19         2.4897   65.5777   11.6495 H           1 XBV       0.0371
     56 H20         9.9777   65.0205   -1.0625 H           1 XBV       0.0871
     57 H21         8.7644   66.2036   -0.5833 H           1 XBV       0.0871
     58 H22         7.8403   64.5386   -2.1441 H           1 XBV       0.1075
@<TRIPOS>BOND
     1     2     1   1
     2     1     5   1
     3     1     6   1
     4     2     3   1
     5     7     2   1
     6     3     4   1
     7     4     5   1
     8     4    33   1
     9     6    10   2
    10     6    11  am
    11     8     7  am
    12     7     9   2
    13    19     8   1
    14    11    12   1
    15    12    13  ar
    16    12    17  ar
    17    13    16  ar
    18    15    14  ar
    19    16    14  ar
    20    14    18   1
    21    17    15  ar
    22    20    19  ar
    23    24    19  ar
    24    23    20  ar
    25    21    22  ar
    26    21    23  ar
    27    25    21   1
    28    22    24  ar
    29    24    32   1
    30    26    25   1
    31    25    30  am
    32    29    26   2
    33    27    28   2
    34    27    29   1
    35    28    30   1
    36    30    31   2
    37    33    34   1
    38    34    35   1
    39    34    36   1
    40     1    37   1
    41     2    38   1
    42     3    39   1
    43     3    40   1
    44     4    41   1
    45     5    42   1
    46     5    43   1
    47     8    44   1
    48    11    45   1
    49    15    46   1
    50    16    47   1
    51    17    48   1
    52    20    49   1
    53    22    50   1
    54    23    51   1
    55    26    52   1
    56    27    53   1
    57    28    54   1
    58    29    55   1
    59    33    56   1
    60    33    57   1
    61    34    58   1
@<TRIPOS>SUBSTRUCTURE
     1  XBV      1

