@<TRIPOS>MOLECULE
2xbv_ligand_045
    58    61
SMALL
GAST_HUCK
****
This file was generated by PARSER (from files_GN.cpp)

@<TRIPOS>ATOM
      1 C1         10.5234   65.3573    3.0293 C.3         1 XBV       0.1199
      2 C2         11.5825   64.5563    2.2057 C.3         1 XBV       0.1186
      3 C3         12.9384   64.9497    2.8476 C.3         1 XBV      -0.0085
      4 N4         12.6065   65.1497    4.2767 N.4         1 XBV       0.2432
      5 C5         11.3087   65.8684    4.2664 C.3         1 XBV      -0.0084
      6 C6          9.3203   64.6024    3.3845 C.2         1 XBV       0.2190
      7 C7         11.4766   64.8143    0.7661 C.2         1 XBV       0.2118
      8 N8         10.7921   63.9751   -0.0081 N.am        1 XBV      -0.2375
      9 O9         11.8233   65.9149    0.3563 O.2         1 XBV      -0.3856
     10 O10         9.4540   63.4807    3.8603 O.2         1 XBV      -0.3820
     11 N11         8.1314   65.1969    3.3376 N.am        1 XBV      -0.2172
     12 C12         6.9142   64.6883    3.6613 C.ar        1 XBV       0.1394
     13 N13         6.7206   63.3824    4.0030 N.ar        1 XBV      -0.2842
     14 C14         4.3694   63.6813    4.3003 C.ar        1 XBV       0.0509
     15 C15         4.5218   65.0392    3.9613 C.ar        1 XBV      -0.0424
     16 C16         5.5087   62.8571    4.3173 C.ar        1 XBV       0.0070
     17 C17         5.7940   65.5458    3.6366 C.ar        1 XBV      -0.0126
     18 CL1         2.8429   63.0550    4.6745 Cl          1 XBV      -0.0753
     19 C19        10.4615   64.0770   -1.3413 C.ar        1 XBV       0.0920
     20 C20         9.2863   63.3991   -1.7453 C.ar        1 XBV      -0.0478
     21 C21         9.5631   64.1474   -4.0712 C.ar        1 XBV       0.0960
     22 C22        10.7485   64.8070   -3.6685 C.ar        1 XBV      -0.0056
     23 C23         8.8483   63.4276   -3.0841 C.ar        1 XBV      -0.0431
     24 C24        11.2165   64.7444   -2.3424 C.ar        1 XBV       0.1465
     25 N25         9.1400   64.1936   -5.3946 N.am        1 XBV      -0.1717
     26 C26        10.0464   63.9269   -6.3936 C.2         1 XBV       0.0799
     27 C27         8.4139   64.3698   -8.0090 C.2         1 XBV      -0.0778
     28 C28         7.4991   64.6016   -7.0452 C.2         1 XBV      -0.0111
     29 C29         9.6940   64.0352   -7.6902 C.2         1 XBV      -0.0402
     30 C30         7.8706   64.5318   -5.7307 C.2         1 XBV       0.2151
     31 O31         7.0258   64.8456   -4.8958 O.2         1 XBV      -0.4155
     32 F32        12.3839   65.2803   -2.1135 F           1 XBV      -0.1956
     33 C33        13.6830   65.7765    5.1036 C.3         1 XBV       0.0304
     34 C34        13.4100   65.6618    6.6266 C.3         1 XBV       0.2778
     35 F35        13.5985   64.3713    7.0599 F           1 XBV      -0.2034
     36 F36        14.2453   66.4900    7.3334 F           1 XBV      -0.2034
     37 H1         10.2184   66.2482    2.4641 H           1 XBV       0.0628
     38 H2         11.4698   63.4737    2.3742 H           1 XBV       0.0626
     39 H3         13.3476   65.8715    2.4196 H           1 XBV       0.0845
     40 H4         13.6742   64.1482    2.7246 H           1 XBV       0.0845
     41 H5         12.4369   64.2181    4.6612 H           1 XBV       0.2039
     42 H6         10.7675   65.6882    5.1975 H           1 XBV       0.0845
     43 H7         11.4680   66.9491    4.1783 H           1 XBV       0.0845
     44 H8         10.3799   63.2260    0.4590 H           1 XBV       0.2221
     45 H9          8.1364   66.1277    3.0574 H           1 XBV       0.2314
     46 H10         3.7118   65.6616    3.9477 H           1 XBV       0.0697
     47 H11         5.4385   61.8668    4.5581 H           1 XBV       0.0781
     48 H12         5.8968   66.5342    3.3945 H           1 XBV       0.0598
     49 H13         8.7228   62.8793   -1.0647 H           1 XBV       0.0473
     50 H14        11.2896   65.3324   -4.3568 H           1 XBV       0.0513
     51 H15         8.0017   62.9139   -3.3400 H           1 XBV       0.0496
     52 H16        10.9781   63.6495   -6.1843 H           1 XBV       0.1228
     53 H17         8.1478   64.4348   -8.9655 H           1 XBV       0.0636
     54 H18         6.5661   64.8308   -7.3007 H           1 XBV       0.0399
     55 H19        10.3603   63.8614   -8.4069 H           1 XBV       0.0371
     56 H20        13.7961   66.8296    4.8298 H           1 XBV       0.0871
     57 H21        14.6386   65.2853    4.8949 H           1 XBV       0.0871
     58 H22        12.3873   65.9568    6.8670 H           1 XBV       0.1075
@<TRIPOS>BOND
     1     2     1   1
     2     1     5   1
     3     1     6   1
     4     2     3   1
     5     7     2   1
     6     3     4   1
     7     4     5   1
     8     4    33   1
     9     6    10   2
    10     6    11  am
    11     8     7  am
    12     7     9   2
    13    19     8   1
    14    11    12   1
    15    12    13  ar
    16    12    17  ar
    17    13    16  ar
    18    15    14  ar
    19    16    14  ar
    20    14    18   1
    21    17    15  ar
    22    20    19  ar
    23    24    19  ar
    24    23    20  ar
    25    21    22  ar
    26    21    23  ar
    27    25    21   1
    28    22    24  ar
    29    24    32   1
    30    26    25   1
    31    25    30  am
    32    29    26   2
    33    27    28   2
    34    27    29   1
    35    28    30   1
    36    30    31   2
    37    33    34   1
    38    34    35   1
    39    34    36   1
    40     1    37   1
    41     2    38   1
    42     3    39   1
    43     3    40   1
    44     4    41   1
    45     5    42   1
    46     5    43   1
    47     8    44   1
    48    11    45   1
    49    15    46   1
    50    16    47   1
    51    17    48   1
    52    20    49   1
    53    22    50   1
    54    23    51   1
    55    26    52   1
    56    27    53   1
    57    28    54   1
    58    29    55   1
    59    33    56   1
    60    33    57   1
    61    34    58   1
@<TRIPOS>SUBSTRUCTURE
     1  XBV      1

