@<TRIPOS>MOLECULE
2xbv_ligand_021
    58    61
SMALL
GAST_HUCK
****
This file was generated by PARSER (from files_GN.cpp)

@<TRIPOS>ATOM
      1 C1          3.0115   64.6667    6.1174 C.3         1 XBV       0.1199
      2 C2          3.7153   65.6053    7.1351 C.3         1 XBV       0.1186
      3 C3          2.7808   65.4969    8.3627 C.3         1 XBV      -0.0085
      4 N4          2.4341   64.0558    8.4245 N.4         1 XBV       0.2432
      5 C5          2.3430   63.5880    7.0119 C.3         1 XBV      -0.0084
      6 C6          3.8753   64.1335    5.0599 C.2         1 XBV       0.2190
      7 C7          3.9787   66.9432    6.6219 C.2         1 XBV       0.2118
      8 N8          4.8539   67.0715    5.6326 N.am        1 XBV      -0.2375
      9 O9          3.4058   67.9209    7.0918 O.2         1 XBV      -0.3856
     10 O10         3.5571   64.3543    3.8975 O.2         1 XBV      -0.3820
     11 N11         4.9995   63.4911    5.3664 N.am        1 XBV      -0.2172
     12 C12         5.9591   63.0129    4.5298 C.ar        1 XBV       0.1394
     13 N13         5.8668   63.0940    3.1711 N.ar        1 XBV      -0.2842
     14 C14         7.9844   62.0407    2.8352 C.ar        1 XBV       0.0509
     15 C15         8.1280   61.9401    4.2320 C.ar        1 XBV      -0.0424
     16 C16         6.8193   62.6354    2.3198 C.ar        1 XBV       0.0070
     17 C17         7.1152   62.4222    5.0832 C.ar        1 XBV      -0.0126
     18 CL1         9.1822   61.4583    1.7922 Cl          1 XBV      -0.0753
     19 C19         5.1613   68.2185    4.9831 C.ar        1 XBV       0.0920
     20 C20         6.2857   68.9678    5.3860 C.ar        1 XBV      -0.0478
     21 C21         5.9553   70.5125    3.5158 C.ar        1 XBV       0.0960
     22 C22         4.8227   69.7622    3.1199 C.ar        1 XBV      -0.0056
     23 C23         6.6717   70.1086    4.6649 C.ar        1 XBV      -0.0431
     24 C24         4.4297   68.6197    3.8412 C.ar        1 XBV       0.1465
     25 N25         6.3537   71.6179    2.7982 N.am        1 XBV      -0.1717
     26 C26         7.5136   71.5517    2.0769 C.2         1 XBV       0.0799
     27 C27         7.2242   73.7806    1.4147 C.2         1 XBV      -0.0778
     28 C28         6.0756   73.8570    2.1168 C.2         1 XBV      -0.0111
     29 C29         7.9504   72.6253    1.3875 C.2         1 XBV      -0.0402
     30 C30         5.6324   72.7622    2.8147 C.2         1 XBV       0.2151
     31 O31         4.5985   72.8770    3.4625 O.2         1 XBV      -0.4155
     32 F32         3.4050   67.9262    3.4250 F           1 XBV      -0.1956
     33 C33         1.2821   63.6857    9.3011 C.3         1 XBV       0.0304
     34 C34         1.6809   63.4797   10.7844 C.3         1 XBV       0.2778
     35 F35         2.1252   64.6344   11.3837 F           1 XBV      -0.2034
     36 F36         0.6073   63.0265   11.5141 F           1 XBV      -0.2034
     37 H1          2.1942   65.2352    5.6533 H           1 XBV       0.0628
     38 H2          4.6787   65.1768    7.4391 H           1 XBV       0.0626
     39 H3          1.8866   66.1160    8.2312 H           1 XBV       0.0845
     40 H4          3.3040   65.8095    9.2698 H           1 XBV       0.0845
     41 H5          3.2474   63.5831    8.8241 H           1 XBV       0.2039
     42 H6          2.8607   62.6264    6.9508 H           1 XBV       0.0845
     43 H7          1.3069   63.4359    6.6843 H           1 XBV       0.0845
     44 H8          5.3212   66.2695    5.3395 H           1 XBV       0.2221
     45 H9          5.1727   63.3703    6.3149 H           1 XBV       0.2314
     46 H10         8.9669   61.5167    4.6349 H           1 XBV       0.0697
     47 H11         6.6779   62.7288    1.3121 H           1 XBV       0.0781
     48 H12         7.2314   62.3497    6.0987 H           1 XBV       0.0598
     49 H13         6.8192   68.6821    6.2110 H           1 XBV       0.0473
     50 H14         4.2963   70.0404    2.2880 H           1 XBV       0.0513
     51 H15         7.4847   70.6495    4.9805 H           1 XBV       0.0496
     52 H16         8.0566   70.7165    2.0462 H           1 XBV       0.1228
     53 H17         7.5495   74.5760    0.9170 H           1 XBV       0.0636
     54 H18         5.5663   74.7112    2.1357 H           1 XBV       0.0399
     55 H19         8.8008   72.5834    0.8723 H           1 XBV       0.0371
     56 H20         0.8731   62.7326    8.9495 H           1 XBV       0.0871
     57 H21         0.4869   64.4319    9.2249 H           1 XBV       0.0871
     58 H22         2.4720   62.7279   10.8311 H           1 XBV       0.1075
@<TRIPOS>BOND
     1     2     1   1
     2     1     5   1
     3     1     6   1
     4     2     3   1
     5     7     2   1
     6     3     4   1
     7     4     5   1
     8     4    33   1
     9     6    10   2
    10     6    11  am
    11     8     7  am
    12     7     9   2
    13    19     8   1
    14    11    12   1
    15    12    13  ar
    16    12    17  ar
    17    13    16  ar
    18    15    14  ar
    19    16    14  ar
    20    14    18   1
    21    17    15  ar
    22    20    19  ar
    23    24    19  ar
    24    23    20  ar
    25    21    22  ar
    26    21    23  ar
    27    25    21   1
    28    22    24  ar
    29    24    32   1
    30    26    25   1
    31    25    30  am
    32    29    26   2
    33    27    28   2
    34    27    29   1
    35    28    30   1
    36    30    31   2
    37    33    34   1
    38    34    35   1
    39    34    36   1
    40     1    37   1
    41     2    38   1
    42     3    39   1
    43     3    40   1
    44     4    41   1
    45     5    42   1
    46     5    43   1
    47     8    44   1
    48    11    45   1
    49    15    46   1
    50    16    47   1
    51    17    48   1
    52    20    49   1
    53    22    50   1
    54    23    51   1
    55    26    52   1
    56    27    53   1
    57    28    54   1
    58    29    55   1
    59    33    56   1
    60    33    57   1
    61    34    58   1
@<TRIPOS>SUBSTRUCTURE
     1  XBV      1

