@<TRIPOS>MOLECULE
2xbv_ligand_049
    58    61
SMALL
GAST_HUCK
****
This file was generated by PARSER (from files_GN.cpp)

@<TRIPOS>ATOM
      1 C1         12.3923   65.9260    4.0540 C.3         1 XBV       0.1199
      2 C2         12.9349   64.7951    3.1271 C.3         1 XBV       0.1186
      3 C3         14.3848   64.6196    3.6136 C.3         1 XBV      -0.0085
      4 N4         14.2554   64.6935    5.0906 N.4         1 XBV       0.2432
      5 C5         13.2391   65.7523    5.3516 C.3         1 XBV      -0.0084
      6 C6         10.9435   65.9993    4.2669 C.2         1 XBV       0.2190
      7 C7         12.8334   65.0761    1.6922 C.2         1 XBV       0.2118
      8 N8         12.1376   64.2639    0.9023 N.am        1 XBV      -0.2375
      9 O9         13.3604   66.0980    1.2774 O.2         1 XBV      -0.3856
     10 O10        10.5303   66.9131    4.9726 O.2         1 XBV      -0.3820
     11 N11        10.0994   65.1760    3.6488 N.am        1 XBV      -0.2172
     12 C12         8.7459   65.1122    3.6982 C.ar        1 XBV       0.1394
     13 N13         7.9725   65.8979    4.5039 N.ar        1 XBV      -0.2842
     14 C14         5.9424   64.9068    3.7174 C.ar        1 XBV       0.0509
     15 C15         6.7003   64.0636    2.8843 C.ar        1 XBV      -0.0424
     16 C16         6.6168   65.8319    4.5350 C.ar        1 XBV       0.0070
     17 C17         8.1027   64.1637    2.8729 C.ar        1 XBV      -0.0126
     18 CL1         4.2543   64.8009    3.7418 Cl          1 XBV      -0.0753
     19 C19        11.8395   64.3352   -0.4421 C.ar        1 XBV       0.0920
     20 C20        12.4717   65.1944   -1.3784 C.ar        1 XBV      -0.0478
     21 C21        11.0432   64.3851   -3.1915 C.ar        1 XBV       0.0960
     22 C22        10.4230   63.5088   -2.2769 C.ar        1 XBV      -0.0056
     23 C23        12.0667   65.2348   -2.7240 C.ar        1 XBV      -0.0431
     24 C24        10.8159   63.4800   -0.9244 C.ar        1 XBV       0.1465
     25 N25        10.6789   64.3904   -4.5190 N.am        1 XBV      -0.1717
     26 C26        11.0189   63.3138   -5.2927 C.2         1 XBV       0.0799
     27 C27        10.0483   64.3469   -7.1573 C.2         1 XBV      -0.0778
     28 C28         9.7020   65.4126   -6.4066 C.2         1 XBV      -0.0111
     29 C29        10.7102   63.2893   -6.6033 C.2         1 XBV      -0.0402
     30 C30        10.0251   65.4380   -5.0736 C.2         1 XBV       0.2151
     31 O31         9.6796   66.4182   -4.4214 O.2         1 XBV      -0.4155
     32 F32        10.1991   62.6443   -0.1306 F           1 XBV      -0.1956
     33 C33        15.5466   64.7966    5.8433 C.3         1 XBV       0.0304
     34 C34        16.1756   63.4156    6.1946 C.3         1 XBV       0.2778
     35 F35        15.5910   62.8842    7.3202 F           1 XBV      -0.2034
     36 F36        16.0570   62.4739    5.1991 F           1 XBV      -0.2034
     37 H1         12.6777   66.8926    3.6193 H           1 XBV       0.0628
     38 H2         12.4229   63.8538    3.3679 H           1 XBV       0.0626
     39 H3         15.0299   65.4215    3.2323 H           1 XBV       0.0845
     40 H4         14.7780   63.6555    3.2798 H           1 XBV       0.0845
     41 H5         13.8143   63.8209    5.3882 H           1 XBV       0.2039
     42 H6         12.6257   65.4341    6.1994 H           1 XBV       0.0845
     43 H7         13.7107   66.7084    5.6107 H           1 XBV       0.0845
     44 H8         11.7270   63.5158    1.3628 H           1 XBV       0.2221
     45 H9         10.5061   64.5331    3.0498 H           1 XBV       0.2314
     46 H10         6.2383   63.3767    2.2843 H           1 XBV       0.0697
     47 H11         6.0987   66.4552    5.1581 H           1 XBV       0.0781
     48 H12         8.6467   63.5474    2.2621 H           1 XBV       0.0598
     49 H13        13.2449   65.8017   -1.1064 H           1 XBV       0.0473
     50 H14         9.6724   62.8926   -2.6029 H           1 XBV       0.0513
     51 H15        12.5322   65.8781   -3.3674 H           1 XBV       0.0496
     52 H16        11.5133   62.5378   -4.9056 H           1 XBV       0.1228
     53 H17         9.8321   64.3354   -8.1269 H           1 XBV       0.0636
     54 H18         9.2220   66.1766   -6.8289 H           1 XBV       0.0399
     55 H19        10.9773   62.5161   -7.1687 H           1 XBV       0.0371
     56 H20        15.3874   65.3320    6.7851 H           1 XBV       0.0871
     57 H21        16.2663   65.3953    5.2748 H           1 XBV       0.0871
     58 H22        17.2410   63.5462    6.3990 H           1 XBV       0.1075
@<TRIPOS>BOND
     1     2     1   1
     2     1     5   1
     3     1     6   1
     4     2     3   1
     5     7     2   1
     6     3     4   1
     7     4     5   1
     8     4    33   1
     9     6    10   2
    10     6    11  am
    11     8     7  am
    12     7     9   2
    13    19     8   1
    14    11    12   1
    15    12    13  ar
    16    12    17  ar
    17    13    16  ar
    18    15    14  ar
    19    16    14  ar
    20    14    18   1
    21    17    15  ar
    22    20    19  ar
    23    24    19  ar
    24    23    20  ar
    25    21    22  ar
    26    21    23  ar
    27    25    21   1
    28    22    24  ar
    29    24    32   1
    30    26    25   1
    31    25    30  am
    32    29    26   2
    33    27    28   2
    34    27    29   1
    35    28    30   1
    36    30    31   2
    37    33    34   1
    38    34    35   1
    39    34    36   1
    40     1    37   1
    41     2    38   1
    42     3    39   1
    43     3    40   1
    44     4    41   1
    45     5    42   1
    46     5    43   1
    47     8    44   1
    48    11    45   1
    49    15    46   1
    50    16    47   1
    51    17    48   1
    52    20    49   1
    53    22    50   1
    54    23    51   1
    55    26    52   1
    56    27    53   1
    57    28    54   1
    58    29    55   1
    59    33    56   1
    60    33    57   1
    61    34    58   1
@<TRIPOS>SUBSTRUCTURE
     1  XBV      1

