@<TRIPOS>MOLECULE
2xbv_ligand_061
    58    61
SMALL
GAST_HUCK
****
This file was generated by PARSER (from files_GN.cpp)

@<TRIPOS>ATOM
      1 C1         10.8148   63.8742    0.0730 C.3         1 XBV       0.1199
      2 C2          9.9564   63.5941    1.3689 C.3         1 XBV       0.1186
      3 C3         10.9077   63.9368    2.5380 C.3         1 XBV      -0.0085
      4 N4         11.8063   64.9826    1.9969 N.4         1 XBV       0.2432
      5 C5         12.0911   64.5891    0.6064 C.3         1 XBV      -0.0084
      6 C6         10.0961   64.5561   -1.0174 C.2         1 XBV       0.2190
      7 C7          9.3588   62.2628    1.5034 C.2         1 XBV       0.2118
      8 N8          8.5059   61.9869    2.4965 N.am        1 XBV      -0.2375
      9 O9          9.6237   61.4037    0.6740 O.2         1 XBV      -0.3856
     10 O10         8.8738   64.4929   -1.0688 O.2         1 XBV      -0.3820
     11 N11        10.7783   65.1478   -1.9953 N.am        1 XBV      -0.2172
     12 C12        10.3100   65.7941   -3.0958 C.ar        1 XBV       0.1394
     13 N13         8.9877   65.8663   -3.4233 N.ar        1 XBV      -0.2842
     14 C14         9.4220   67.1343   -5.4020 C.ar        1 XBV       0.0509
     15 C15        10.7986   67.0857   -5.1049 C.ar        1 XBV      -0.0424
     16 C16         8.5198   66.5044   -4.5273 C.ar        1 XBV       0.0070
     17 C17        11.2435   66.4194   -3.9491 C.ar        1 XBV      -0.0126
     18 CL1         8.8668   67.9270   -6.7901 Cl          1 XBV      -0.0753
     19 C19         7.9581   60.7651    2.8173 C.ar        1 XBV       0.0920
     20 C20         8.6885   59.5567    2.7102 C.ar        1 XBV      -0.0478
     21 C21         6.8009   58.2500    3.5777 C.ar        1 XBV       0.0960
     22 C22         6.0805   59.4649    3.7115 C.ar        1 XBV      -0.0056
     23 C23         8.1214   58.3275    3.0754 C.ar        1 XBV      -0.0431
     24 C24         6.6476   60.7025    3.3451 C.ar        1 XBV       0.1465
     25 N25         6.2477   57.0214    3.9177 N.am        1 XBV      -0.1717
     26 C26         6.9917   56.1317    4.6539 C.2         1 XBV       0.0799
     27 C27         5.2423   54.5852    4.5701 C.2         1 XBV      -0.0778
     28 C28         4.4911   55.4469    3.8600 C.2         1 XBV      -0.0111
     29 C29         6.5007   54.9173    4.9684 C.2         1 XBV      -0.0402
     30 C30         5.0033   56.6666    3.5124 C.2         1 XBV       0.2151
     31 O31         4.3067   57.3785    2.7968 O.2         1 XBV      -0.4155
     32 F32         5.9288   61.7877    3.4899 F           1 XBV      -0.1956
     33 C33        13.0037   65.3908    2.8017 C.3         1 XBV       0.0304
     34 C34        13.8573   64.2561    3.4348 C.3         1 XBV       0.2778
     35 F35        15.1925   64.5707    3.4567 F           1 XBV      -0.2034
     36 F36        13.4694   64.0499    4.7361 F           1 XBV      -0.2034
     37 H1         11.1712   62.9372   -0.3679 H           1 XBV       0.0628
     38 H2          9.1388   64.3230    1.4228 H           1 XBV       0.0626
     39 H3         11.4588   63.0459    2.8439 H           1 XBV       0.0845
     40 H4         10.3544   64.3273    3.3965 H           1 XBV       0.0845
     41 H5         11.2265   65.8229    1.9127 H           1 XBV       0.2039
     42 H6         12.3527   65.4815    0.0314 H           1 XBV       0.0845
     43 H7         12.9486   63.9056    0.5691 H           1 XBV       0.0845
     44 H8          8.2115   62.7348    3.0393 H           1 XBV       0.2221
     45 H9         11.7446   65.1384   -1.8973 H           1 XBV       0.2314
     46 H10        11.4782   67.5263   -5.7268 H           1 XBV       0.0697
     47 H11         7.5156   66.5099   -4.7132 H           1 XBV       0.0781
     48 H12        12.2419   66.3994   -3.7305 H           1 XBV       0.0598
     49 H13         9.6582   59.5516    2.3907 H           1 XBV       0.0473
     50 H14         5.1242   59.4470    4.0844 H           1 XBV       0.0513
     51 H15         8.6845   57.4787    2.9743 H           1 XBV       0.0496
     52 H16         7.9058   56.3662    4.9775 H           1 XBV       0.1228
     53 H17         4.8683   53.7021    4.8247 H           1 XBV       0.0636
     54 H18         3.5668   55.1954    3.5983 H           1 XBV       0.0399
     55 H19         7.0430   54.2815    5.5004 H           1 XBV       0.0371
     56 H20        12.6509   66.0547    3.5915 H           1 XBV       0.0871
     57 H21        13.6550   66.0049    2.1661 H           1 XBV       0.0871
     58 H22        13.7423   63.3234    2.8848 H           1 XBV       0.1075
@<TRIPOS>BOND
     1     2     1   1
     2     1     5   1
     3     1     6   1
     4     2     3   1
     5     7     2   1
     6     3     4   1
     7     4     5   1
     8     4    33   1
     9     6    10   2
    10     6    11  am
    11     8     7  am
    12     7     9   2
    13    19     8   1
    14    11    12   1
    15    12    13  ar
    16    12    17  ar
    17    13    16  ar
    18    15    14  ar
    19    16    14  ar
    20    14    18   1
    21    17    15  ar
    22    20    19  ar
    23    24    19  ar
    24    23    20  ar
    25    21    22  ar
    26    21    23  ar
    27    25    21   1
    28    22    24  ar
    29    24    32   1
    30    26    25   1
    31    25    30  am
    32    29    26   2
    33    27    28   2
    34    27    29   1
    35    28    30   1
    36    30    31   2
    37    33    34   1
    38    34    35   1
    39    34    36   1
    40     1    37   1
    41     2    38   1
    42     3    39   1
    43     3    40   1
    44     4    41   1
    45     5    42   1
    46     5    43   1
    47     8    44   1
    48    11    45   1
    49    15    46   1
    50    16    47   1
    51    17    48   1
    52    20    49   1
    53    22    50   1
    54    23    51   1
    55    26    52   1
    56    27    53   1
    57    28    54   1
    58    29    55   1
    59    33    56   1
    60    33    57   1
    61    34    58   1
@<TRIPOS>SUBSTRUCTURE
     1  XBV      1

