@<TRIPOS>MOLECULE
2xbv_ligand_063
    58    61
SMALL
GAST_HUCK
****
This file was generated by PARSER (from files_GN.cpp)

@<TRIPOS>ATOM
      1 C1          8.6796   65.6832    2.6382 C.3         1 XBV       0.1199
      2 C2          7.8814   66.4799    3.7142 C.3         1 XBV       0.1186
      3 C3          6.7142   65.5312    4.0524 C.3         1 XBV      -0.0085
      4 N4          7.3847   64.2088    4.0561 N.4         1 XBV       0.2432
      5 C5          8.2380   64.2047    2.8464 C.3         1 XBV      -0.0084
      6 C6         10.1273   65.8743    2.7041 C.2         1 XBV       0.2190
      7 C7          7.4712   67.8249    3.3355 C.2         1 XBV       0.2118
      8 N8          7.6399   68.8298    4.1917 N.am        1 XBV      -0.2375
      9 O9          6.9212   68.0117    2.2583 O.2         1 XBV      -0.3856
     10 O10        10.7231   66.2446    1.6992 O.2         1 XBV      -0.3820
     11 N11        10.7740   65.5847    3.8327 N.am        1 XBV      -0.2172
     12 C12        12.1028   65.5903    4.0843 C.ar        1 XBV       0.1394
     13 N13        13.0374   65.8874    3.1373 N.ar        1 XBV      -0.2842
     14 C14        14.8519   65.4460    4.6214 C.ar        1 XBV       0.0509
     15 C15        13.9185   65.1488    5.6368 C.ar        1 XBV      -0.0424
     16 C16        14.3701   65.8360    3.3591 C.ar        1 XBV       0.0070
     17 C17        12.5422   65.2341    5.3739 C.ar        1 XBV      -0.0126
     18 CL1        16.5124   65.3272    4.9171 Cl          1 XBV      -0.0753
     19 C19         7.3743   70.1468    3.9410 C.ar        1 XBV       0.0920
     20 C20         8.1681   70.8943    3.0442 C.ar        1 XBV      -0.0478
     21 C21         6.8082   72.8939    3.4456 C.ar        1 XBV       0.0960
     22 C22         6.0226   72.1460    4.3552 C.ar        1 XBV      -0.0056
     23 C23         7.8856   72.2479    2.7992 C.ar        1 XBV      -0.0431
     24 C24         6.3023   70.7847    4.6068 C.ar        1 XBV       0.1465
     25 N25         6.5217   74.2207    3.1839 N.am        1 XBV      -0.1717
     26 C26         7.5480   75.1238    3.1844 C.2         1 XBV       0.0799
     27 C27         6.0434   76.8360    2.6437 C.2         1 XBV      -0.0778
     28 C28         5.0182   75.9559    2.6434 C.2         1 XBV      -0.0111
     29 C29         7.3141   76.4256    2.9117 C.2         1 XBV      -0.0402
     30 C30         5.2620   74.6342    2.9086 C.2         1 XBV       0.2151
     31 O31         4.3094   73.8629    2.8479 O.2         1 XBV      -0.4155
     32 F32         5.5328   70.1171    5.4310 F           1 XBV      -0.1956
     33 C33         6.5210   63.0104    4.2792 C.3         1 XBV       0.0304
     34 C34         7.2247   61.9822    5.1989 C.3         1 XBV       0.2778
     35 F35         6.6753   60.7298    5.0272 F           1 XBV      -0.2034
     36 F36         8.5681   61.8775    4.9259 F           1 XBV      -0.2034
     37 H1          8.3378   65.9779    1.6369 H           1 XBV       0.0628
     38 H2          8.4812   66.5490    4.6297 H           1 XBV       0.0626
     39 H3          5.9194   65.5771    3.2955 H           1 XBV       0.0845
     40 H4          6.2852   65.7647    5.0377 H           1 XBV       0.0845
     41 H5          8.0355   64.2334    4.8444 H           1 XBV       0.2039
     42 H6          9.0866   63.5348    2.9928 H           1 XBV       0.0845
     43 H7          7.6804   63.8645    1.9671 H           1 XBV       0.0845
     44 H8          7.9118   68.6026    5.0942 H           1 XBV       0.2221
     45 H9         10.2090   65.2913    4.5759 H           1 XBV       0.2314
     46 H10        14.2430   64.8687    6.5702 H           1 XBV       0.0697
     47 H11        15.0153   66.0781    2.6080 H           1 XBV       0.0781
     48 H12        11.8733   65.0293    6.1172 H           1 XBV       0.0598
     49 H13         8.9559   70.4516    2.5716 H           1 XBV       0.0473
     50 H14         5.2409   72.5974    4.8406 H           1 XBV       0.0513
     51 H15         8.4752   72.7668    2.1443 H           1 XBV       0.0496
     52 H16         8.4821   74.8466    3.3842 H           1 XBV       0.1228
     53 H17         5.8700   77.7962    2.4429 H           1 XBV       0.0636
     54 H18         4.0980   76.2739    2.4358 H           1 XBV       0.0399
     55 H19         8.0660   77.0796    2.8990 H           1 XBV       0.0371
     56 H20         6.2477   62.5276    3.3365 H           1 XBV       0.0871
     57 H21         5.5964   63.3075    4.7785 H           1 XBV       0.0871
     58 H22         7.0994   62.2713    6.2475 H           1 XBV       0.1075
@<TRIPOS>BOND
     1     2     1   1
     2     1     5   1
     3     1     6   1
     4     2     3   1
     5     7     2   1
     6     3     4   1
     7     4     5   1
     8     4    33   1
     9     6    10   2
    10     6    11  am
    11     8     7  am
    12     7     9   2
    13    19     8   1
    14    11    12   1
    15    12    13  ar
    16    12    17  ar
    17    13    16  ar
    18    15    14  ar
    19    16    14  ar
    20    14    18   1
    21    17    15  ar
    22    20    19  ar
    23    24    19  ar
    24    23    20  ar
    25    21    22  ar
    26    21    23  ar
    27    25    21   1
    28    22    24  ar
    29    24    32   1
    30    26    25   1
    31    25    30  am
    32    29    26   2
    33    27    28   2
    34    27    29   1
    35    28    30   1
    36    30    31   2
    37    33    34   1
    38    34    35   1
    39    34    36   1
    40     1    37   1
    41     2    38   1
    42     3    39   1
    43     3    40   1
    44     4    41   1
    45     5    42   1
    46     5    43   1
    47     8    44   1
    48    11    45   1
    49    15    46   1
    50    16    47   1
    51    17    48   1
    52    20    49   1
    53    22    50   1
    54    23    51   1
    55    26    52   1
    56    27    53   1
    57    28    54   1
    58    29    55   1
    59    33    56   1
    60    33    57   1
    61    34    58   1
@<TRIPOS>SUBSTRUCTURE
     1  XBV      1

