@<TRIPOS>MOLECULE
2xbv_ligand_048
    58    61
SMALL
GAST_HUCK
****
This file was generated by PARSER (from files_GN.cpp)

@<TRIPOS>ATOM
      1 C1          8.7453   63.9999    2.2051 C.3         1 XBV       0.1199
      2 C2          9.4523   62.6189    2.3550 C.3         1 XBV       0.1186
      3 C3         10.5281   62.6478    1.2478 C.3         1 XBV      -0.0085
      4 N4         11.0274   64.0400    1.2629 N.4         1 XBV       0.2432
      5 C5          9.8820   64.9143    1.6333 C.3         1 XBV      -0.0084
      6 C6          8.0328   64.4625    3.4029 C.2         1 XBV       0.2190
      7 C7          8.5910   61.4392    2.2612 C.2         1 XBV       0.2118
      8 N8          8.5034   60.5961    3.2910 N.am        1 XBV      -0.2375
      9 O9          8.0150   61.2035    1.2095 O.2         1 XBV      -0.3856
     10 O10         8.3702   65.5036    3.9556 O.2         1 XBV      -0.3820
     11 N11         6.9785   63.7791    3.8477 N.am        1 XBV      -0.2172
     12 C12         6.1593   64.0559    4.8949 C.ar        1 XBV       0.1394
     13 N13         6.2972   65.1592    5.6944 N.ar        1 XBV      -0.2842
     14 C14         4.4349   64.5603    7.0763 C.ar        1 XBV       0.0509
     15 C15         4.2471   63.4156    6.2841 C.ar        1 XBV      -0.0424
     16 C16         5.4828   65.4412    6.7424 C.ar        1 XBV       0.0070
     17 C17         5.0945   63.1740    5.1912 C.ar        1 XBV      -0.0126
     18 CL1         3.4273   64.8764    8.3968 Cl          1 XBV      -0.0753
     19 C19         7.7223   59.4799    3.3657 C.ar        1 XBV       0.0920
     20 C20         8.3527   58.2205    3.3900 C.ar        1 XBV      -0.0478
     21 C21         6.1793   57.0872    3.6977 C.ar        1 XBV       0.0960
     22 C22         5.5726   58.3698    3.7053 C.ar        1 XBV      -0.0056
     23 C23         7.5896   57.0493    3.5263 C.ar        1 XBV      -0.0431
     24 C24         6.3226   59.5385    3.5184 C.ar        1 XBV       0.1465
     25 N25         5.4245   55.9255    3.8684 N.am        1 XBV      -0.1717
     26 C26         5.9496   54.8851    4.5966 C.2         1 XBV       0.0799
     27 C27         4.0038   53.6323    4.2770 C.2         1 XBV      -0.0778
     28 C28         3.4523   54.6394    3.5819 C.2         1 XBV      -0.0111
     29 C29         5.2659   53.7431    4.7789 C.2         1 XBV      -0.0402
     30 C30         4.1721   55.7850    3.3498 C.2         1 XBV       0.2151
     31 O31         3.6554   56.6144    2.6143 O.2         1 XBV      -0.4155
     32 F32         5.6982   60.6731    3.5011 F           1 XBV      -0.1956
     33 C33        11.8863   64.4861    0.1228 C.3         1 XBV       0.0304
     34 C34        11.3141   64.3560   -1.3185 C.3         1 XBV       0.2778
     35 F35        12.1483   64.9640   -2.2221 F           1 XBV      -0.2034
     36 F36        11.2052   63.0397   -1.7027 F           1 XBV      -0.2034
     37 H1          7.9910   63.9230    1.4129 H           1 XBV       0.0628
     38 H2          9.9797   62.6202    3.3178 H           1 XBV       0.0626
     39 H3         10.0806   62.3916    0.2827 H           1 XBV       0.0845
     40 H4         11.3418   61.9464    1.4607 H           1 XBV       0.0845
     41 H5         11.6478   64.0815    2.0772 H           1 XBV       0.2039
     42 H6         10.2590   65.6267    2.3696 H           1 XBV       0.0845
     43 H7          9.5007   65.4904    0.7870 H           1 XBV       0.0845
     44 H8          9.0750   60.7668    4.0461 H           1 XBV       0.2221
     45 H9          6.7650   62.9719    3.3459 H           1 XBV       0.2314
     46 H10         3.4882   62.7599    6.4891 H           1 XBV       0.0697
     47 H11         5.6440   66.2846    7.2950 H           1 XBV       0.0781
     48 H12         4.9142   62.3614    4.6149 H           1 XBV       0.0598
     49 H13         9.3665   58.1503    3.2824 H           1 XBV       0.0473
     50 H14         4.5641   58.4606    3.8438 H           1 XBV       0.0513
     51 H15         8.0817   56.1506    3.5015 H           1 XBV       0.0496
     52 H16         6.8515   54.9580    5.0222 H           1 XBV       0.1228
     53 H17         3.4815   52.8039    4.4440 H           1 XBV       0.0636
     54 H18         2.5200   54.5490    3.2420 H           1 XBV       0.0399
     55 H19         5.6633   52.9911    5.2945 H           1 XBV       0.0371
     56 H20        12.8316   63.9426    0.1741 H           1 XBV       0.0871
     57 H21        12.1328   65.5375    0.3092 H           1 XBV       0.0871
     58 H22        10.3351   64.8219   -1.3985 H           1 XBV       0.1075
@<TRIPOS>BOND
     1     2     1   1
     2     1     5   1
     3     1     6   1
     4     2     3   1
     5     7     2   1
     6     3     4   1
     7     4     5   1
     8     4    33   1
     9     6    10   2
    10     6    11  am
    11     8     7  am
    12     7     9   2
    13    19     8   1
    14    11    12   1
    15    12    13  ar
    16    12    17  ar
    17    13    16  ar
    18    15    14  ar
    19    16    14  ar
    20    14    18   1
    21    17    15  ar
    22    20    19  ar
    23    24    19  ar
    24    23    20  ar
    25    21    22  ar
    26    21    23  ar
    27    25    21   1
    28    22    24  ar
    29    24    32   1
    30    26    25   1
    31    25    30  am
    32    29    26   2
    33    27    28   2
    34    27    29   1
    35    28    30   1
    36    30    31   2
    37    33    34   1
    38    34    35   1
    39    34    36   1
    40     1    37   1
    41     2    38   1
    42     3    39   1
    43     3    40   1
    44     4    41   1
    45     5    42   1
    46     5    43   1
    47     8    44   1
    48    11    45   1
    49    15    46   1
    50    16    47   1
    51    17    48   1
    52    20    49   1
    53    22    50   1
    54    23    51   1
    55    26    52   1
    56    27    53   1
    57    28    54   1
    58    29    55   1
    59    33    56   1
    60    33    57   1
    61    34    58   1
@<TRIPOS>SUBSTRUCTURE
     1  XBV      1

