@<TRIPOS>MOLECULE
2xbv_ligand_068
    58    61
SMALL
GAST_HUCK
****
This file was generated by PARSER (from files_GN.cpp)

@<TRIPOS>ATOM
      1 C1          3.3249   64.3820    6.1317 C.3         1 XBV       0.1199
      2 C2          4.4638   65.2670    6.7123 C.3         1 XBV       0.1186
      3 C3          3.8782   65.7384    8.0531 C.3         1 XBV      -0.0085
      4 N4          3.1710   64.5505    8.5773 N.4         1 XBV       0.2432
      5 C5          2.5543   63.8853    7.3961 C.3         1 XBV      -0.0084
      6 C6          3.6934   63.2981    5.2067 C.2         1 XBV       0.2190
      7 C7          4.9130   66.3218    5.8063 C.2         1 XBV       0.2118
      8 N8          5.7471   66.0145    4.8171 N.am        1 XBV      -0.2375
      9 O9          4.4162   67.4399    5.8914 O.2         1 XBV      -0.3856
     10 O10         2.8413   62.9303    4.4105 O.2         1 XBV      -0.3820
     11 N11         4.8819   62.6995    5.2703 N.am        1 XBV      -0.2172
     12 C12         5.3812   61.6799    4.5210 C.ar        1 XBV       0.1394
     13 N13         4.6958   61.0828    3.5029 N.ar        1 XBV      -0.2842
     14 C14         6.4665   59.5370    3.0656 C.ar        1 XBV       0.0509
     15 C15         7.2141   60.1337    4.0979 C.ar        1 XBV      -0.0424
     16 C16         5.1851   60.0503    2.7772 C.ar        1 XBV       0.0070
     17 C17         6.6739   61.2004    4.8312 C.ar        1 XBV      -0.0126
     18 CL1         7.0844   58.2216    2.2073 Cl          1 XBV      -0.0753
     19 C19         6.2627   66.8661    3.8735 C.ar        1 XBV       0.0920
     20 C20         6.4278   66.3896    2.5541 C.ar        1 XBV      -0.0478
     21 C21         7.2737   68.5808    1.8103 C.ar        1 XBV       0.0960
     22 C22         7.1524   69.0324    3.1500 C.ar        1 XBV      -0.0056
     23 C23         6.9234   67.2360    1.5412 C.ar        1 XBV      -0.0431
     24 C24         6.6772   68.1889    4.1715 C.ar        1 XBV       0.1465
     25 N25         7.7536   69.4166    0.8186 N.am        1 XBV      -0.1717
     26 C26         8.8407   70.2079    1.0909 C.2         1 XBV       0.0799
     27 C27         8.7182   71.1478   -1.0499 C.2         1 XBV      -0.0778
     28 C28         7.6752   70.3540   -1.3549 C.2         1 XBV      -0.0111
     29 C29         9.3025   71.0895    0.1821 C.2         1 XBV      -0.0402
     30 C30         7.1714   69.5005   -0.4051 C.2         1 XBV       0.2151
     31 O31         6.1558   68.8798   -0.7029 O.2         1 XBV      -0.4155
     32 F32         6.6853   68.6460    5.3968 F           1 XBV      -0.1956
     33 C33         2.2976   64.8397    9.7599 C.3         1 XBV       0.0304
     34 C34         1.7098   63.5787   10.4431 C.3         1 XBV       0.2778
     35 F35         1.4185   63.8309   11.7607 F           1 XBV      -0.2034
     36 F36         0.5480   63.1739    9.8313 F           1 XBV      -0.2034
     37 H1          2.6439   65.0508    5.5888 H           1 XBV       0.0628
     38 H2          5.3364   64.6583    6.9848 H           1 XBV       0.0626
     39 H3          3.1761   66.5712    7.9157 H           1 XBV       0.0845
     40 H4          4.6774   66.0384    8.7384 H           1 XBV       0.0845
     41 H5          3.8947   63.9107    8.9101 H           1 XBV       0.2039
     42 H6          2.6420   62.8016    7.5319 H           1 XBV       0.0845
     43 H7          1.4892   64.1367    7.3040 H           1 XBV       0.0845
     44 H8          5.9551   65.0711    4.6925 H           1 XBV       0.2221
     45 H9          5.4854   63.0130    5.9589 H           1 XBV       0.2314
     46 H10         8.1519   59.7866    4.3204 H           1 XBV       0.0697
     47 H11         4.6178   59.6451    2.0304 H           1 XBV       0.0781
     48 H12         7.2204   61.6187    5.5943 H           1 XBV       0.0598
     49 H13         6.1768   65.4250    2.3182 H           1 XBV       0.0473
     50 H14         7.4209   69.9878    3.3932 H           1 XBV       0.0513
     51 H15         7.0239   66.8595    0.5981 H           1 XBV       0.0496
     52 H16         9.3152   70.1583    1.9616 H           1 XBV       0.1228
     53 H17         9.0819   71.7732   -1.7376 H           1 XBV       0.0636
     54 H18         7.2762   70.3951   -2.2692 H           1 XBV       0.0399
     55 H19        10.0726   71.6800    0.3985 H           1 XBV       0.0371
     56 H20         1.4837   65.5149    9.4835 H           1 XBV       0.0871
     57 H21         2.9124   65.3556   10.5075 H           1 XBV       0.0871
     58 H22         2.4262   62.7598   10.3976 H           1 XBV       0.1075
@<TRIPOS>BOND
     1     2     1   1
     2     1     5   1
     3     1     6   1
     4     2     3   1
     5     7     2   1
     6     3     4   1
     7     4     5   1
     8     4    33   1
     9     6    10   2
    10     6    11  am
    11     8     7  am
    12     7     9   2
    13    19     8   1
    14    11    12   1
    15    12    13  ar
    16    12    17  ar
    17    13    16  ar
    18    15    14  ar
    19    16    14  ar
    20    14    18   1
    21    17    15  ar
    22    20    19  ar
    23    24    19  ar
    24    23    20  ar
    25    21    22  ar
    26    21    23  ar
    27    25    21   1
    28    22    24  ar
    29    24    32   1
    30    26    25   1
    31    25    30  am
    32    29    26   2
    33    27    28   2
    34    27    29   1
    35    28    30   1
    36    30    31   2
    37    33    34   1
    38    34    35   1
    39    34    36   1
    40     1    37   1
    41     2    38   1
    42     3    39   1
    43     3    40   1
    44     4    41   1
    45     5    42   1
    46     5    43   1
    47     8    44   1
    48    11    45   1
    49    15    46   1
    50    16    47   1
    51    17    48   1
    52    20    49   1
    53    22    50   1
    54    23    51   1
    55    26    52   1
    56    27    53   1
    57    28    54   1
    58    29    55   1
    59    33    56   1
    60    33    57   1
    61    34    58   1
@<TRIPOS>SUBSTRUCTURE
     1  XBV      1

