@<TRIPOS>MOLECULE
2xbv_ligand_005
    58    61
SMALL
GAST_HUCK
****
This file was generated by PARSER (from files_GN.cpp)

@<TRIPOS>ATOM
      1 C1         11.3212   65.4393    1.7019 C.3         1 XBV       0.1199
      2 C2         11.0500   64.5431    2.9536 C.3         1 XBV       0.1186
      3 C3         12.4594   64.2733    3.5434 C.3         1 XBV      -0.0085
      4 N4         13.2611   65.4530    3.1595 N.4         1 XBV       0.2432
      5 C5         12.8530   65.7121    1.7582 C.3         1 XBV      -0.0084
      6 C6         10.4621   66.6307    1.6416 C.2         1 XBV       0.2190
      7 C7         10.3023   63.3180    2.6635 C.2         1 XBV       0.2118
      8 N8          9.2046   63.0182    3.3520 N.am        1 XBV      -0.2375
      9 O9         10.7906   62.5371    1.8555 O.2         1 XBV      -0.3856
     10 O10         9.4558   66.5665    0.9448 O.2         1 XBV      -0.3820
     11 N11        10.7770   67.7477    2.2949 N.am        1 XBV      -0.2172
     12 C12        10.1851   68.9719    2.2494 C.ar        1 XBV       0.1394
     13 N13         9.0726   69.2438    1.5085 N.ar        1 XBV      -0.2842
     14 C14         9.0304   71.5382    2.1818 C.ar        1 XBV       0.0509
     15 C15        10.1889   71.3112    2.9477 C.ar        1 XBV      -0.0424
     16 C16         8.4847   70.4673    1.4504 C.ar        1 XBV       0.0070
     17 C17        10.7672   70.0277    2.9853 C.ar        1 XBV      -0.0126
     18 CL1         8.3018   73.0655    2.1492 Cl          1 XBV      -0.0753
     19 C19         8.4607   61.8673    3.3252 C.ar        1 XBV       0.0920
     20 C20         7.9520   61.4330    4.5703 C.ar        1 XBV      -0.0478
     21 C21         6.9934   59.4324    3.5414 C.ar        1 XBV       0.0960
     22 C22         7.4542   59.8863    2.2876 C.ar        1 XBV      -0.0056
     23 C23         7.2307   60.2310    4.6796 C.ar        1 XBV      -0.0431
     24 C24         8.1491   61.1034    2.1680 C.ar        1 XBV       0.1465
     25 N25         6.3169   58.2380    3.6357 N.am        1 XBV      -0.1717
     26 C26         5.0295   58.1796    3.1797 C.2         1 XBV       0.0799
     27 C27         5.0004   55.8679    3.5587 C.2         1 XBV      -0.0778
     28 C28         6.2563   55.9147    4.0459 C.2         1 XBV      -0.0111
     29 C29         4.3751   57.0018    3.1271 C.2         1 XBV      -0.0402
     30 C30         6.9248   57.1142    4.0832 C.2         1 XBV       0.2151
     31 O31         8.0878   57.1052    4.4710 O.2         1 XBV      -0.4155
     32 F32         8.4306   61.5029    0.9570 F           1 XBV      -0.1956
     33 C33        14.7362   65.3428    3.3951 C.3         1 XBV       0.0304
     34 C34        15.1589   65.4732    4.8828 C.3         1 XBV       0.2778
     35 F35        14.4019   66.4100    5.5439 F           1 XBV      -0.2034
     36 F36        15.0464   64.2736    5.5439 F           1 XBV      -0.2034
     37 H1         11.1517   64.8651    0.7806 H           1 XBV       0.0628
     38 H2         10.5058   65.1259    3.7082 H           1 XBV       0.0626
     39 H3         12.9096   63.3651    3.1250 H           1 XBV       0.0845
     40 H4         12.4144   64.1774    4.6284 H           1 XBV       0.0845
     41 H5         12.9267   66.2445    3.7152 H           1 XBV       0.2039
     42 H6         13.1030   66.7311    1.4681 H           1 XBV       0.0845
     43 H7         13.3805   65.0346    1.0771 H           1 XBV       0.0845
     44 H8          9.0170   63.6118    4.0984 H           1 XBV       0.2221
     45 H9         11.5699   67.6967    2.8525 H           1 XBV       0.2314
     46 H10        10.6090   72.0758    3.4830 H           1 XBV       0.0697
     47 H11         7.6492   70.5989    0.8775 H           1 XBV       0.0781
     48 H12        11.6108   69.8725    3.5430 H           1 XBV       0.0598
     49 H13         8.1310   61.9760    5.4214 H           1 XBV       0.0473
     50 H14         7.2746   59.3267    1.4494 H           1 XBV       0.0513
     51 H15         6.8936   59.9314    5.5956 H           1 XBV       0.0496
     52 H16         4.5581   58.9989    2.8660 H           1 XBV       0.1228
     53 H17         4.5247   54.9954    3.5024 H           1 XBV       0.0636
     54 H18         6.6973   55.0731    4.3457 H           1 XBV       0.0399
     55 H19         3.4472   56.9568    2.7722 H           1 XBV       0.0371
     56 H20        15.2358   66.1440    2.8446 H           1 XBV       0.0871
     57 H21        15.1197   64.3971    2.9979 H           1 XBV       0.0871
     58 H22        16.2047   65.7868    4.9386 H           1 XBV       0.1075
@<TRIPOS>BOND
     1     2     1   1
     2     1     5   1
     3     1     6   1
     4     2     3   1
     5     7     2   1
     6     3     4   1
     7     4     5   1
     8     4    33   1
     9     6    10   2
    10     6    11  am
    11     8     7  am
    12     7     9   2
    13    19     8   1
    14    11    12   1
    15    12    13  ar
    16    12    17  ar
    17    13    16  ar
    18    15    14  ar
    19    16    14  ar
    20    14    18   1
    21    17    15  ar
    22    20    19  ar
    23    24    19  ar
    24    23    20  ar
    25    21    22  ar
    26    21    23  ar
    27    25    21   1
    28    22    24  ar
    29    24    32   1
    30    26    25   1
    31    25    30  am
    32    29    26   2
    33    27    28   2
    34    27    29   1
    35    28    30   1
    36    30    31   2
    37    33    34   1
    38    34    35   1
    39    34    36   1
    40     1    37   1
    41     2    38   1
    42     3    39   1
    43     3    40   1
    44     4    41   1
    45     5    42   1
    46     5    43   1
    47     8    44   1
    48    11    45   1
    49    15    46   1
    50    16    47   1
    51    17    48   1
    52    20    49   1
    53    22    50   1
    54    23    51   1
    55    26    52   1
    56    27    53   1
    57    28    54   1
    58    29    55   1
    59    33    56   1
    60    33    57   1
    61    34    58   1
@<TRIPOS>SUBSTRUCTURE
     1  XBV      1

