@<TRIPOS>MOLECULE
2xbv_ligand_060
    58    61
SMALL
GAST_HUCK
****
This file was generated by PARSER (from files_GN.cpp)

@<TRIPOS>ATOM
      1 C1         12.2473   64.3420    1.4291 C.3         1 XBV       0.1199
      2 C2         11.6316   63.1352    0.6505 C.3         1 XBV       0.1186
      3 C3         11.3474   63.7802   -0.7276 C.3         1 XBV      -0.0085
      4 N4         12.5037   64.6592   -0.9861 N.4         1 XBV       0.2432
      5 C5         12.7736   65.3058    0.3245 C.3         1 XBV      -0.0084
      6 C6         13.2543   63.9656    2.4218 C.2         1 XBV       0.2190
      7 C7         10.4616   62.4927    1.2542 C.2         1 XBV       0.2118
      8 N8          9.5691   61.8920    0.4713 N.am        1 XBV      -0.2375
      9 O9         10.3110   62.5301    2.4702 O.2         1 XBV      -0.3856
     10 O10        14.2424   63.3508    2.0362 O.2         1 XBV      -0.3820
     11 N11        13.1180   64.3470    3.6893 N.am        1 XBV      -0.2172
     12 C12        13.9400   64.1077    4.7443 C.ar        1 XBV       0.1394
     13 N13        15.0599   63.3346    4.6545 N.ar        1 XBV      -0.2842
     14 C14        15.6271   63.6747    6.9497 C.ar        1 XBV       0.0509
     15 C15        14.4741   64.4703    7.0951 C.ar        1 XBV      -0.0424
     16 C16        15.8961   63.0969    5.6958 C.ar        1 XBV       0.0070
     17 C17        13.6242   64.6841    5.9935 C.ar        1 XBV      -0.0126
     18 CL1        16.6913   63.4356    8.2438 Cl          1 XBV      -0.0753
     19 C19         8.4407   61.2349    0.8450 C.ar        1 XBV       0.0920
     20 C20         7.2397   61.5786    0.1964 C.ar        1 XBV      -0.0478
     21 C21         6.0189   59.8504    1.4585 C.ar        1 XBV       0.0960
     22 C22         7.2425   59.5181    2.0972 C.ar        1 XBV      -0.0056
     23 C23         6.0492   60.8966    0.5010 C.ar        1 XBV      -0.0431
     24 C24         8.4420   60.1793    1.7813 C.ar        1 XBV       0.1465
     25 N25         4.8323   59.1827    1.7759 N.am        1 XBV      -0.1717
     26 C26         3.6869   59.9115    1.9985 C.2         1 XBV       0.0799
     27 C27         2.4808   57.9470    2.4042 C.2         1 XBV      -0.0778
     28 C28         3.5886   57.2101    2.2105 C.2         1 XBV      -0.0111
     29 C29         2.5183   59.3040    2.2893 C.2         1 XBV      -0.0402
     30 C30         4.7639   57.8280    1.8608 C.2         1 XBV       0.2151
     31 O31         5.7079   57.0964    1.5793 O.2         1 XBV      -0.4155
     32 F32         9.5548   59.7555    2.3165 F           1 XBV      -0.1956
     33 C33        12.4954   65.5735   -2.1865 C.3         1 XBV       0.0304
     34 C34        11.3353   65.4971   -3.2223 C.3         1 XBV       0.2778
     35 F35        10.1040   65.7812   -2.6768 F           1 XBV      -0.2034
     36 F36        11.5390   66.4208   -4.2222 F           1 XBV      -0.2034
     37 H1         11.4282   64.8714    1.9354 H           1 XBV       0.0628
     38 H2         12.3855   62.3481    0.4995 H           1 XBV       0.0626
     39 H3         10.4098   64.3470   -0.6803 H           1 XBV       0.0845
     40 H4         11.2820   63.0124   -1.5054 H           1 XBV       0.0845
     41 H5         13.2841   64.0125   -1.1418 H           1 XBV       0.2039
     42 H6         13.8405   65.5170    0.4110 H           1 XBV       0.0845
     43 H7         12.2412   66.2581    0.4042 H           1 XBV       0.0845
     44 H8          9.6832   62.0049   -0.4860 H           1 XBV       0.2221
     45 H9         12.3329   64.8821    3.8868 H           1 XBV       0.2314
     46 H10        14.2542   64.9023    7.9953 H           1 XBV       0.0697
     47 H11        16.7180   62.5083    5.5563 H           1 XBV       0.0781
     48 H12        12.7910   65.2687    6.1040 H           1 XBV       0.0598
     49 H13         7.2262   62.3299   -0.5020 H           1 XBV       0.0473
     50 H14         7.2667   58.7800    2.8042 H           1 XBV       0.0513
     51 H15         5.1962   61.1704    0.0054 H           1 XBV       0.0496
     52 H16         3.6931   60.9068    1.9541 H           1 XBV       0.1228
     53 H17         1.6279   57.5001    2.6513 H           1 XBV       0.0636
     54 H18         3.5434   56.2228    2.3262 H           1 XBV       0.0399
     55 H19         1.6937   59.8393    2.4366 H           1 XBV       0.0371
     56 H20        13.4136   65.3523   -2.7324 H           1 XBV       0.0871
     57 H21        12.5838   66.6198   -1.8825 H           1 XBV       0.0871
     58 H22        11.3067   64.5056   -3.6712 H           1 XBV       0.1075
@<TRIPOS>BOND
     1     2     1   1
     2     1     5   1
     3     1     6   1
     4     2     3   1
     5     7     2   1
     6     3     4   1
     7     4     5   1
     8     4    33   1
     9     6    10   2
    10     6    11  am
    11     8     7  am
    12     7     9   2
    13    19     8   1
    14    11    12   1
    15    12    13  ar
    16    12    17  ar
    17    13    16  ar
    18    15    14  ar
    19    16    14  ar
    20    14    18   1
    21    17    15  ar
    22    20    19  ar
    23    24    19  ar
    24    23    20  ar
    25    21    22  ar
    26    21    23  ar
    27    25    21   1
    28    22    24  ar
    29    24    32   1
    30    26    25   1
    31    25    30  am
    32    29    26   2
    33    27    28   2
    34    27    29   1
    35    28    30   1
    36    30    31   2
    37    33    34   1
    38    34    35   1
    39    34    36   1
    40     1    37   1
    41     2    38   1
    42     3    39   1
    43     3    40   1
    44     4    41   1
    45     5    42   1
    46     5    43   1
    47     8    44   1
    48    11    45   1
    49    15    46   1
    50    16    47   1
    51    17    48   1
    52    20    49   1
    53    22    50   1
    54    23    51   1
    55    26    52   1
    56    27    53   1
    57    28    54   1
    58    29    55   1
    59    33    56   1
    60    33    57   1
    61    34    58   1
@<TRIPOS>SUBSTRUCTURE
     1  XBV      1

