@<TRIPOS>MOLECULE
2xbv_ligand_086
    58    61
SMALL
GAST_HUCK
****
This file was generated by PARSER (from files_GN.cpp)

@<TRIPOS>ATOM
      1 C1          8.4006   65.7697    2.4185 C.3         1 XBV       0.1199
      2 C2          7.7850   64.5577    1.6461 C.3         1 XBV       0.1186
      3 C3          6.5249   65.1680    0.9951 C.3         1 XBV      -0.0085
      4 N4          6.9926   66.5043    0.5745 N.4         1 XBV       0.2432
      5 C5          7.8102   67.0194    1.6946 C.3         1 XBV      -0.0084
      6 C6          9.8672   65.7662    2.4975 C.2         1 XBV       0.2190
      7 C7          7.4461   63.3640    2.4161 C.2         1 XBV       0.2118
      8 N8          7.7381   62.1575    1.9333 N.am        1 XBV      -0.2375
      9 O9          6.8176   63.4939    3.4617 O.2         1 XBV      -0.3856
     10 O10        10.5034   65.9558    1.4647 O.2         1 XBV      -0.3820
     11 N11        10.4729   65.5689    3.6661 N.am        1 XBV      -0.2172
     12 C12        11.8012   65.5591    3.9504 C.ar        1 XBV       0.1394
     13 N13        12.7688   65.7821    3.0193 N.ar        1 XBV      -0.2842
     14 C14        14.5357   65.4677    4.6046 C.ar        1 XBV       0.0509
     15 C15        13.5709   65.2503    5.6006 C.ar        1 XBV      -0.0424
     16 C16        14.0988   65.7530    3.2953 C.ar        1 XBV       0.0070
     17 C17        12.2008   65.3044    5.2821 C.ar        1 XBV      -0.0126
     18 CL1        16.1848   65.3757    4.9682 Cl          1 XBV      -0.0753
     19 C19         7.3932   60.9282    2.4413 C.ar        1 XBV       0.0920
     20 C20         6.1642   60.6692    3.0906 C.ar        1 XBV      -0.0478
     21 C21         6.7760   58.3209    3.4408 C.ar        1 XBV       0.0960
     22 C22         7.9961   58.5804    2.7759 C.ar        1 XBV      -0.0056
     23 C23         5.8633   59.3921    3.5916 C.ar        1 XBV      -0.0431
     24 C24         8.3051   59.8614    2.2801 C.ar        1 XBV       0.1465
     25 N25         6.4956   57.0635    3.9543 N.am        1 XBV      -0.1717
     26 C26         7.4115   56.4700    4.7832 C.2         1 XBV       0.0799
     27 C27         6.0567   54.5740    4.9656 C.2         1 XBV      -0.0778
     28 C28         5.1289   55.1435    4.1712 C.2         1 XBV      -0.0111
     29 C29         7.2001   55.2407    5.2864 C.2         1 XBV      -0.0402
     30 C30         5.3531   56.3954    3.6507 C.2         1 XBV       0.2151
     31 O31         4.5088   56.8542    2.8936 O.2         1 XBV      -0.4155
     32 F32         9.4577   60.0481    1.6947 F           1 XBV      -0.1956
     33 C33         5.9823   67.4174   -0.0377 C.3         1 XBV       0.0304
     34 C34         4.7943   67.9053    0.8377 C.3         1 XBV       0.2778
     35 F35         5.1821   68.8565    1.7446 F           1 XBV      -0.2034
     36 F36         3.8294   68.4760    0.0458 F           1 XBV      -0.2034
     37 H1          7.9937   65.7750    3.4361 H           1 XBV       0.0628
     38 H2          8.4642   64.2776    0.8290 H           1 XBV       0.0626
     39 H3          5.7070   65.2322    1.7203 H           1 XBV       0.0845
     40 H4          6.1983   64.5727    0.1374 H           1 XBV       0.0845
     41 H5          7.6640   66.3147   -0.1763 H           1 XBV       0.2039
     42 H6          8.5747   67.6924    1.2896 H           1 XBV       0.0845
     43 H7          7.2101   67.5920    2.4044 H           1 XBV       0.0845
     44 H8          8.2904   62.1329    1.1332 H           1 XBV       0.2221
     45 H9          9.8818   65.3820    4.4159 H           1 XBV       0.2314
     46 H10        13.8563   65.0493    6.5643 H           1 XBV       0.0697
     47 H11        14.7707   65.9427    2.5496 H           1 XBV       0.0781
     48 H12        11.5072   65.1531    6.0179 H           1 XBV       0.0598
     49 H13         5.4576   61.4030    3.1838 H           1 XBV       0.0473
     50 H14         8.6800   57.8266    2.6599 H           1 XBV       0.0513
     51 H15         4.9805   59.2400    4.0838 H           1 XBV       0.0496
     52 H16         8.2415   56.9565    5.0417 H           1 XBV       0.1228
     53 H17         5.8954   53.6627    5.3337 H           1 XBV       0.0636
     54 H18         4.2886   54.6451    3.9667 H           1 XBV       0.0399
     55 H19         7.8697   54.8186    5.8865 H           1 XBV       0.0371
     56 H20         5.5738   66.9014   -0.9110 H           1 XBV       0.0871
     57 H21         6.5165   68.2933   -0.4194 H           1 XBV       0.0871
     58 H22         4.3396   67.0739    1.3688 H           1 XBV       0.1075
@<TRIPOS>BOND
     1     2     1   1
     2     1     5   1
     3     1     6   1
     4     2     3   1
     5     7     2   1
     6     3     4   1
     7     4     5   1
     8     4    33   1
     9     6    10   2
    10     6    11  am
    11     8     7  am
    12     7     9   2
    13    19     8   1
    14    11    12   1
    15    12    13  ar
    16    12    17  ar
    17    13    16  ar
    18    15    14  ar
    19    16    14  ar
    20    14    18   1
    21    17    15  ar
    22    20    19  ar
    23    24    19  ar
    24    23    20  ar
    25    21    22  ar
    26    21    23  ar
    27    25    21   1
    28    22    24  ar
    29    24    32   1
    30    26    25   1
    31    25    30  am
    32    29    26   2
    33    27    28   2
    34    27    29   1
    35    28    30   1
    36    30    31   2
    37    33    34   1
    38    34    35   1
    39    34    36   1
    40     1    37   1
    41     2    38   1
    42     3    39   1
    43     3    40   1
    44     4    41   1
    45     5    42   1
    46     5    43   1
    47     8    44   1
    48    11    45   1
    49    15    46   1
    50    16    47   1
    51    17    48   1
    52    20    49   1
    53    22    50   1
    54    23    51   1
    55    26    52   1
    56    27    53   1
    57    28    54   1
    58    29    55   1
    59    33    56   1
    60    33    57   1
    61    34    58   1
@<TRIPOS>SUBSTRUCTURE
     1  XBV      1

