@<TRIPOS>MOLECULE
2xbv_ligand_072
    58    61
SMALL
GAST_HUCK
****
This file was generated by PARSER (from files_GN.cpp)

@<TRIPOS>ATOM
      1 C1         11.3575   65.6516    1.8840 C.3         1 XBV       0.1199
      2 C2         11.0720   64.5772    2.9691 C.3         1 XBV       0.1186
      3 C3         12.5000   64.2424    3.4793 C.3         1 XBV      -0.0085
      4 N4         13.1126   65.5664    3.6282 N.4         1 XBV       0.2432
      5 C5         12.5972   66.3797    2.4866 C.3         1 XBV      -0.0084
      6 C6         10.1851   66.4476    1.5160 C.2         1 XBV       0.2190
      7 C7         10.3246   63.3773    2.5639 C.2         1 XBV       0.2118
      8 N8          9.2935   62.9841    3.3134 N.am        1 XBV      -0.2375
      9 O9         10.7510   62.6959    1.6391 O.2         1 XBV      -0.3856
     10 O10        10.1413   67.6390    1.8012 O.2         1 XBV      -0.3820
     11 N11         9.2321   65.8634    0.7956 N.am        1 XBV      -0.2172
     12 C12         8.1029   66.3996    0.2663 C.ar        1 XBV       0.1394
     13 N13         7.7460   67.7045    0.4316 N.ar        1 XBV      -0.2842
     14 C14         5.7692   67.4542   -0.8945 C.ar        1 XBV       0.0509
     15 C15         6.0978   66.0994   -1.0899 C.ar        1 XBV      -0.0424
     16 C16         6.6254   68.2508   -0.1109 C.ar        1 XBV       0.0070
     17 C17         7.2637   65.5687   -0.5060 C.ar        1 XBV      -0.0126
     18 CL1         4.3745   68.1168   -1.5905 Cl          1 XBV      -0.0753
     19 C19         8.5857   61.8112    3.2788 C.ar        1 XBV       0.0920
     20 C20         8.0642   61.3772    4.5174 C.ar        1 XBV      -0.0478
     21 C21         7.0688   59.4074    3.4661 C.ar        1 XBV       0.0960
     22 C22         7.5688   59.8500    2.2212 C.ar        1 XBV      -0.0056
     23 C23         7.3178   60.1894    4.6129 C.ar        1 XBV      -0.0431
     24 C24         8.3027   61.0471    2.1182 C.ar        1 XBV       0.1465
     25 N25         6.3311   58.2502    3.5466 N.am        1 XBV      -0.1717
     26 C26         6.8952   57.1411    4.1150 C.2         1 XBV       0.0799
     27 C27         4.9627   55.9101    3.6256 C.2         1 XBV      -0.0778
     28 C28         4.3892   56.9971    3.0730 C.2         1 XBV      -0.0111
     29 C29         6.2192   55.9738    4.1507 C.2         1 XBV      -0.0402
     30 C30         5.0764   58.1815    3.0363 C.2         1 XBV       0.2151
     31 O31         4.5185   59.1537    2.5350 O.2         1 XBV      -0.4155
     32 F32         8.6553   61.4402    0.9226 F           1 XBV      -0.1956
     33 C33        14.5845   65.6520    3.8733 C.3         1 XBV       0.0304
     34 C34        15.2929   64.4166    4.4884 C.3         1 XBV       0.2778
     35 F35        16.4745   64.8085    5.0867 F           1 XBV      -0.2034
     36 F36        14.4982   63.8004    5.4334 F           1 XBV      -0.2034
     37 H1         11.7038   65.1399    0.9744 H           1 XBV       0.0628
     38 H2         10.5349   65.0661    3.7997 H           1 XBV       0.0626
     39 H3         13.0487   63.6238    2.7622 H           1 XBV       0.0845
     40 H4         12.4512   63.7440    4.4479 H           1 XBV       0.0845
     41 H5         12.6688   65.9612    4.4583 H           1 XBV       0.2039
     42 H6         12.3503   67.3724    2.8772 H           1 XBV       0.0845
     43 H7         13.3402   66.5019    1.6918 H           1 XBV       0.0845
     44 H8          9.1222   63.5396    4.0924 H           1 XBV       0.2221
     45 H9          9.3800   64.9247    0.5984 H           1 XBV       0.2314
     46 H10         5.4975   65.5004   -1.6581 H           1 XBV       0.0697
     47 H11         6.4185   69.2369    0.0513 H           1 XBV       0.0781
     48 H12         7.4967   64.5835   -0.6561 H           1 XBV       0.0598
     49 H13         8.2378   61.9134    5.3723 H           1 XBV       0.0473
     50 H14         7.3756   59.3008    1.3782 H           1 XBV       0.0513
     51 H15         6.9474   59.8983    5.5223 H           1 XBV       0.0496
     52 H16         7.8178   57.1714    4.4936 H           1 XBV       0.1228
     53 H17         4.4674   55.0490    3.6448 H           1 XBV       0.0636
     54 H18         3.4705   56.9288    2.6905 H           1 XBV       0.0399
     55 H19         6.6373   55.1662    4.5472 H           1 XBV       0.0371
     56 H20        14.7220   66.4718    4.5760 H           1 XBV       0.0871
     57 H21        15.1259   65.9114    2.9629 H           1 XBV       0.0871
     58 H22        15.5342   63.6858    3.7029 H           1 XBV       0.1075
@<TRIPOS>BOND
     1     2     1   1
     2     1     5   1
     3     1     6   1
     4     2     3   1
     5     7     2   1
     6     3     4   1
     7     4     5   1
     8     4    33   1
     9     6    10   2
    10     6    11  am
    11     8     7  am
    12     7     9   2
    13    19     8   1
    14    11    12   1
    15    12    13  ar
    16    12    17  ar
    17    13    16  ar
    18    15    14  ar
    19    16    14  ar
    20    14    18   1
    21    17    15  ar
    22    20    19  ar
    23    24    19  ar
    24    23    20  ar
    25    21    22  ar
    26    21    23  ar
    27    25    21   1
    28    22    24  ar
    29    24    32   1
    30    26    25   1
    31    25    30  am
    32    29    26   2
    33    27    28   2
    34    27    29   1
    35    28    30   1
    36    30    31   2
    37    33    34   1
    38    34    35   1
    39    34    36   1
    40     1    37   1
    41     2    38   1
    42     3    39   1
    43     3    40   1
    44     4    41   1
    45     5    42   1
    46     5    43   1
    47     8    44   1
    48    11    45   1
    49    15    46   1
    50    16    47   1
    51    17    48   1
    52    20    49   1
    53    22    50   1
    54    23    51   1
    55    26    52   1
    56    27    53   1
    57    28    54   1
    58    29    55   1
    59    33    56   1
    60    33    57   1
    61    34    58   1
@<TRIPOS>SUBSTRUCTURE
     1  XBV      1

