@<TRIPOS>MOLECULE
2xdl_ligand_001
    33    33
SMALL
GAST_HUCK
****
This file was generated by PARSER (from files_GN.cpp)

@<TRIPOS>ATOM
      1 C1         71.5450   40.0667   27.3470 C.ar        1 MOL       0.1220
      2 C2         71.1948   40.9257   26.2932 C.ar        1 MOL       0.1250
      3 C3         69.8491   40.9815   25.8692 C.ar        1 MOL      -0.0217
      4 C4         68.8139   40.2464   26.5176 C.ar        1 MOL       0.0297
      5 C5         69.1873   39.5037   27.6621 C.ar        1 MOL      -0.0615
      6 C6         70.5358   39.3742   28.0466 C.ar        1 MOL      -0.0351
      7 O7         72.8511   39.9451   27.7072 O.3         1 MOL      -0.3332
      8 C9         64.5810   39.0521   24.3670 C.3         1 MOL      -0.0447
      9 C10        65.1134   39.6625   25.6937 C.3         1 MOL       0.0303
     10 C12        66.8374   37.9472   26.2028 C.3         1 MOL       0.0303
     11 C13        66.2161   37.3274   27.4784 C.3         1 MOL      -0.0447
     12 C14        67.4646   40.3448   26.0928 C.2         1 MOL       0.1966
     13 O15        67.1558   41.4830   25.7623 O.2         1 MOL      -0.3896
     14 O16        72.1452   41.6838   25.6401 O.3         1 MOL      -0.3239
     15 N3         66.5206   39.3666   26.0162 N.am        1 MOL      -0.2747
     16 C15        72.6124   42.8359   26.3752 C.3         1 MOL       0.0569
     17 H1         69.6182   41.5824   25.0734 H           1 MOL       0.0557
     18 H2         68.4738   39.0539   28.2389 H           1 MOL       0.0551
     19 H3         70.7780   38.7957   28.8564 H           1 MOL       0.0524
     20 H4         72.8647   39.5151   28.5849 H           1 MOL       0.2463
     21 H5         63.6809   39.5769   24.0393 H           1 MOL       0.0249
     22 H6         64.3180   37.9978   24.4938 H           1 MOL       0.0249
     23 H7         65.3334   39.1324   23.5833 H           1 MOL       0.0249
     24 H8         64.4735   39.3072   26.5010 H           1 MOL       0.0519
     25 H9         64.9157   40.7386   25.6368 H           1 MOL       0.0519
     26 H10        66.4812   37.3701   25.3474 H           1 MOL       0.0519
     27 H11        67.9103   37.7542   26.2222 H           1 MOL       0.0519
     28 H12        66.6748   36.3578   27.6757 H           1 MOL       0.0249
     29 H13        65.1421   37.1797   27.3599 H           1 MOL       0.0249
     30 H14        66.3859   37.9842   28.3347 H           1 MOL       0.0249
     31 H15        73.2867   43.4124   25.7383 H           1 MOL       0.0573
     32 H16        73.1694   42.5423   27.2669 H           1 MOL       0.0573
     33 H17        71.7855   43.4899   26.6668 H           1 MOL       0.0573
@<TRIPOS>BOND
     1     2     1  ar
     2     6     1  ar
     3     1     7   1
     4     3     2  ar
     5     2    14   1
     6     4     3  ar
     7     4     5  ar
     8    12     4   1
     9     5     6  ar
    10     9     8   1
    11    15     9   1
    12    10    11   1
    13    15    10   1
    14    12    13   2
    15    12    15  am
    16    14    16   1
    17     3    17   1
    18     5    18   1
    19     6    19   1
    20     7    20   1
    21     8    21   1
    22     8    22   1
    23     8    23   1
    24     9    24   1
    25     9    25   1
    26    10    26   1
    27    10    27   1
    28    11    28   1
    29    11    29   1
    30    11    30   1
    31    16    31   1
    32    16    32   1
    33    16    33   1
@<TRIPOS>SUBSTRUCTURE
     1  MOL      1

