@<TRIPOS>MOLECULE
2xdl_ligand_003
    33    33
SMALL
GAST_HUCK
****
This file was generated by PARSER (from files_GN.cpp)

@<TRIPOS>ATOM
      1 C1         63.1696   34.4948   25.0504 C.ar        1 MOL       0.1220
      2 C2         64.4056   34.7797   24.4295 C.ar        1 MOL       0.1250
      3 C3         65.5898   34.7592   25.1997 C.ar        1 MOL      -0.0217
      4 C4         65.5576   34.5201   26.5974 C.ar        1 MOL       0.0297
      5 C5         64.3033   34.2640   27.2041 C.ar        1 MOL      -0.0615
      6 C6         63.1236   34.2646   26.4395 C.ar        1 MOL      -0.0351
      7 O7         62.0418   34.4374   24.2925 O.3         1 MOL      -0.3332
      8 C9         69.6242   36.2378   28.9669 C.3         1 MOL      -0.0447
      9 C10        68.9879   35.2015   28.0072 C.3         1 MOL       0.0303
     10 C12        67.3359   36.8456   27.0688 C.3         1 MOL       0.0303
     11 C13        68.1697   37.3487   25.8648 C.3         1 MOL      -0.0447
     12 C14        66.7394   34.4743   27.3387 C.2         1 MOL       0.1966
     13 O15        66.9462   33.3673   27.8275 O.2         1 MOL      -0.3896
     14 O16        64.5092   34.9918   23.0734 O.3         1 MOL      -0.3239
     15 N3         67.6444   35.4748   27.4719 N.am        1 MOL      -0.2747
     16 C15        63.9124   36.2114   22.5921 C.3         1 MOL       0.0569
     17 H1         66.4893   34.8925   24.7267 H           1 MOL       0.0557
     18 H2         64.2434   34.0684   28.2075 H           1 MOL       0.0551
     19 H3         62.2303   34.0858   26.9021 H           1 MOL       0.0524
     20 H4         61.3292   34.0480   24.8483 H           1 MOL       0.2463
     21 H5         70.5488   35.8406   29.3948 H           1 MOL       0.0249
     22 H6         68.9376   36.4696   29.7808 H           1 MOL       0.0249
     23 H7         69.8698   37.1578   28.4332 H           1 MOL       0.0249
     24 H8         69.0180   34.2632   28.5611 H           1 MOL       0.0519
     25 H9         69.6626   35.0755   27.1556 H           1 MOL       0.0519
     26 H10        66.2815   36.9761   26.8119 H           1 MOL       0.0519
     27 H11        67.4957   37.5158   27.9157 H           1 MOL       0.0519
     28 H12        67.8289   38.3475   25.5808 H           1 MOL       0.0249
     29 H13        68.0494   36.6818   25.0085 H           1 MOL       0.0249
     30 H14        69.2310   37.4048   26.1142 H           1 MOL       0.0249
     31 H15        64.1584   36.3170   21.5351 H           1 MOL       0.0573
     32 H16        64.3012   37.0849   23.1180 H           1 MOL       0.0573
     33 H17        62.8254   36.1866   22.6822 H           1 MOL       0.0573
@<TRIPOS>BOND
     1     2     1  ar
     2     6     1  ar
     3     1     7   1
     4     3     2  ar
     5     2    14   1
     6     4     3  ar
     7     4     5  ar
     8    12     4   1
     9     5     6  ar
    10     9     8   1
    11    15     9   1
    12    10    11   1
    13    15    10   1
    14    12    13   2
    15    12    15  am
    16    14    16   1
    17     3    17   1
    18     5    18   1
    19     6    19   1
    20     7    20   1
    21     8    21   1
    22     8    22   1
    23     8    23   1
    24     9    24   1
    25     9    25   1
    26    10    26   1
    27    10    27   1
    28    11    28   1
    29    11    29   1
    30    11    30   1
    31    16    31   1
    32    16    32   1
    33    16    33   1
@<TRIPOS>SUBSTRUCTURE
     1  MOL      1

