@<TRIPOS>MOLECULE
2xdl_ligand_012
    33    33
SMALL
GAST_HUCK
****
This file was generated by PARSER (from files_GN.cpp)

@<TRIPOS>ATOM
      1 C1         72.2402   40.6516   27.6035 C.ar        1 MOL       0.1220
      2 C2         71.9620   41.8902   26.9868 C.ar        1 MOL       0.1250
      3 C3         70.6521   42.1687   26.5531 C.ar        1 MOL      -0.0217
      4 C4         69.6241   41.2039   26.6768 C.ar        1 MOL       0.0297
      5 C5         69.9383   39.9429   27.2290 C.ar        1 MOL      -0.0615
      6 C6         71.2328   39.6794   27.7098 C.ar        1 MOL      -0.0351
      7 O7         73.4847   40.3750   28.0643 O.3         1 MOL      -0.3332
      8 C9         66.6722   39.5272   28.6444 C.3         1 MOL      -0.0447
      9 C10        67.2092   40.9621   28.3894 C.3         1 MOL       0.0303
     10 C12        65.9073   41.6651   26.3959 C.3         1 MOL       0.0303
     11 C13        65.1855   40.4215   25.8125 C.3         1 MOL      -0.0447
     12 C14        68.3353   41.4919   26.2544 C.2         1 MOL       0.1966
     13 O15        68.2746   41.9678   25.1259 O.2         1 MOL      -0.3896
     14 O16        72.9463   42.8326   26.8804 O.3         1 MOL      -0.3239
     15 N3         67.2040   41.3385   26.9802 N.am        1 MOL      -0.2747
     16 C15        73.2875   43.1595   25.5197 C.3         1 MOL       0.0569
     17 H1         70.4472   43.0864   26.1524 H           1 MOL       0.0557
     18 H2         69.2253   39.2040   27.2999 H           1 MOL       0.0551
     19 H3         71.4364   38.7751   28.1464 H           1 MOL       0.0524
     20 H4         73.3547   39.9241   28.9258 H           1 MOL       0.2463
     21 H5         66.7914   39.2672   29.7043 H           1 MOL       0.0249
     22 H6         67.2298   38.8019   28.0414 H           1 MOL       0.0249
     23 H7         65.6120   39.4626   28.3853 H           1 MOL       0.0249
     24 H8         68.2005   41.0214   28.8476 H           1 MOL       0.0519
     25 H9         66.6023   41.6737   28.9609 H           1 MOL       0.0519
     26 H10        65.2270   42.1232   27.1268 H           1 MOL       0.0519
     27 H11        66.0189   42.4154   25.6067 H           1 MOL       0.0519
     28 H12        64.3179   40.7414   25.2152 H           1 MOL       0.0249
     29 H13        64.8389   39.7713   26.6267 H           1 MOL       0.0249
     30 H14        65.8637   39.8483   25.1704 H           1 MOL       0.0249
     31 H15        74.1547   43.8232   25.5273 H           1 MOL       0.0573
     32 H16        72.4665   43.6872   25.0224 H           1 MOL       0.0573
     33 H17        73.5475   42.2659   24.9429 H           1 MOL       0.0573
@<TRIPOS>BOND
     1     2     1  ar
     2     6     1  ar
     3     1     7   1
     4     3     2  ar
     5     2    14   1
     6     4     3  ar
     7     4     5  ar
     8    12     4   1
     9     5     6  ar
    10     9     8   1
    11    15     9   1
    12    10    11   1
    13    15    10   1
    14    12    13   2
    15    12    15  am
    16    14    16   1
    17     3    17   1
    18     5    18   1
    19     6    19   1
    20     7    20   1
    21     8    21   1
    22     8    22   1
    23     8    23   1
    24     9    24   1
    25     9    25   1
    26    10    26   1
    27    10    27   1
    28    11    28   1
    29    11    29   1
    30    11    30   1
    31    16    31   1
    32    16    32   1
    33    16    33   1
@<TRIPOS>SUBSTRUCTURE
     1  MOL      1

