@<TRIPOS>MOLECULE
2xdl_ligand_013
    33    33
SMALL
GAST_HUCK
****
This file was generated by PARSER (from files_GN.cpp)

@<TRIPOS>ATOM
      1 C1         69.5895   38.6311   31.7221 C.ar        1 MOL       0.1220
      2 C2         68.4132   39.4068   31.6230 C.ar        1 MOL       0.1250
      3 C3         67.6648   39.3870   30.4238 C.ar        1 MOL      -0.0217
      4 C4         68.0610   38.5682   29.3391 C.ar        1 MOL       0.0297
      5 C5         69.2183   37.7678   29.4722 C.ar        1 MOL      -0.0615
      6 C6         69.9792   37.8031   30.6524 C.ar        1 MOL      -0.0351
      7 O7         70.3659   38.6261   32.8361 O.3         1 MOL      -0.3332
      8 C9         67.0533   41.9754   27.0471 C.3         1 MOL      -0.0447
      9 C10        67.9624   40.7607   27.3516 C.3         1 MOL       0.0303
     10 C12        66.5849   39.2234   25.9550 C.3         1 MOL       0.0303
     11 C13        65.0799   39.5877   25.9845 C.3         1 MOL      -0.0447
     12 C14        67.3164   38.5195   28.1700 C.2         1 MOL       0.1966
     13 O15        66.7600   37.4412   27.9962 O.2         1 MOL      -0.3896
     14 O16        68.0055   40.2176   32.6499 O.3         1 MOL      -0.3239
     15 N3         67.2683   39.4840   27.2231 N.am        1 MOL      -0.2747
     16 C15        67.6557   39.5101   33.8551 C.3         1 MOL       0.0569
     17 H1         66.8255   39.9653   30.3496 H           1 MOL       0.0557
     18 H2         69.5308   37.1696   28.7019 H           1 MOL       0.0551
     19 H3         70.8179   37.2255   30.7303 H           1 MOL       0.0524
     20 H4         70.2927   39.5150   33.2466 H           1 MOL       0.2463
     21 H5         67.5774   42.9064   27.2836 H           1 MOL       0.0249
     22 H6         66.1454   41.9229   27.6517 H           1 MOL       0.0249
     23 H7         66.7823   42.0030   25.9921 H           1 MOL       0.0249
     24 H8         68.3846   40.9247   28.3475 H           1 MOL       0.0519
     25 H9         68.8151   40.7773   26.6669 H           1 MOL       0.0519
     26 H10        67.0422   39.7781   25.1340 H           1 MOL       0.0519
     27 H11        66.6884   38.1670   25.6781 H           1 MOL       0.0519
     28 H12        64.6210   39.3357   25.0278 H           1 MOL       0.0249
     29 H13        64.9432   40.6555   26.1527 H           1 MOL       0.0249
     30 H14        64.5641   39.0419   26.7779 H           1 MOL       0.0249
     31 H15        67.2447   40.2299   34.5673 H           1 MOL       0.0573
     32 H16        68.5202   39.0417   34.3247 H           1 MOL       0.0573
     33 H17        66.8991   38.7457   33.6589 H           1 MOL       0.0573
@<TRIPOS>BOND
     1     2     1  ar
     2     6     1  ar
     3     1     7   1
     4     3     2  ar
     5     2    14   1
     6     4     3  ar
     7     4     5  ar
     8    12     4   1
     9     5     6  ar
    10     9     8   1
    11    15     9   1
    12    10    11   1
    13    15    10   1
    14    12    13   2
    15    12    15  am
    16    14    16   1
    17     3    17   1
    18     5    18   1
    19     6    19   1
    20     7    20   1
    21     8    21   1
    22     8    22   1
    23     8    23   1
    24     9    24   1
    25     9    25   1
    26    10    26   1
    27    10    27   1
    28    11    28   1
    29    11    29   1
    30    11    30   1
    31    16    31   1
    32    16    32   1
    33    16    33   1
@<TRIPOS>SUBSTRUCTURE
     1  MOL      1

