@<TRIPOS>MOLECULE
2xhm_ligand_040
    69    70
SMALL
GAST_HUCK
****
This file was generated by PARSER (from files_GN.cpp)

@<TRIPOS>ATOM
      1 CAR       -20.0965   21.2702   -7.6796 C.ar        1 K26      -0.0686
      2 CAN       -21.4732   20.9905   -7.6109 C.ar        1 K26      -0.0398
      3 CBD       -22.0091   19.9011   -8.3206 C.ar        1 K26       0.0805
      4 OAI       -23.3393   19.6419   -8.2514 O.3         1 K26      -0.3376
      5 CAO       -21.1610   19.1014   -9.1086 C.ar        1 K26      -0.0398
      6 CAS       -19.7805   19.3777   -9.1727 C.ar        1 K26      -0.0686
      7 CBF       -19.2289   20.4746   -8.4687 C.ar        1 K26      -0.0501
      8 CAV       -17.7644   20.7703   -8.5268 C.3         1 K26       0.0145
      9 CBI       -17.1487   21.0773   -9.9338 C.3         1 K26       0.1207
     10 PBK       -17.9800   22.2452  -10.8070 P.3         1 K26       0.0863
     11 OAJ       -17.1187   23.1579  -11.5230 O.co2       1 K26      -0.5606
     12 OAK       -18.7966   21.6068  -11.8143 O.co2       1 K26      -0.5606
     13 OAG       -18.8628   23.0573  -10.0031 O.co2       1 K26      -0.5606
     14 NAY       -15.7626   21.4461   -9.7430 N.am        1 K26      -0.2653
     15 C         -14.8389   21.6563  -10.6840 C.2         1 K26       0.2049
     16 O         -15.1411   21.4475  -11.8551 O.2         1 K26      -0.3943
     17 CA        -13.5118   22.2330  -10.3844 C.3         1 K26       0.1389
     18 N         -12.8684   22.6325  -11.6191 N.am        1 K26      -0.2621
     19 CBB       -11.5768   22.6810  -11.9174 C.2         1 K26       0.2043
     20 OAF       -10.7567   22.1678  -11.1643 O.2         1 K26      -0.3944
     21 CBJ       -11.0823   23.2605  -13.1724 C.3         1 K26       0.1334
     22 CBG       -12.1083   23.9984  -14.1181 C.3         1 K26      -0.0037
     23 CAC       -12.8478   25.1588  -13.3741 C.3         1 K26      -0.0582
     24 CAT       -11.4505   24.5634  -15.4346 C.3         1 K26      -0.0491
     25 CAA       -11.4421   23.6008  -16.6496 C.3         1 K26      -0.0648
     26 NAX       -10.2804   22.3446  -13.9324 N.am        1 K26      -0.2656
     27 CAZ       -10.2093   21.0205  -13.9062 C.2         1 K26       0.1751
     28 CAB        -9.2698   20.3894  -14.7993 C.3         1 K26       0.0258
     29 OAD       -10.8544   20.3398  -13.1192 O.2         1 K26      -0.3972
     30 CB        -13.6011   23.4569   -9.4020 C.3         1 K26       0.0163
     31 CG        -12.3206   24.1801   -9.1516 C.ar        1 K26      -0.0493
     32 CD1       -11.9856   25.3301   -9.9075 C.ar        1 K26      -0.0685
     33 CE1       -10.7250   25.9417   -9.7766 C.ar        1 K26      -0.0398
     34 CZ         -9.7910   25.4360   -8.8510 C.ar        1 K26       0.0805
     35 OH         -8.5663   26.0047   -8.7419 O.3         1 K26      -0.3376
     36 CE2       -10.1352   24.3369   -8.0421 C.ar        1 K26      -0.0398
     37 CD2       -11.3878   23.7097   -8.1953 C.ar        1 K26      -0.0685
     38 H1        -19.7334   22.0687   -7.1534 H           1 K26       0.0530
     39 H2        -22.0834   21.5797   -7.0399 H           1 K26       0.0525
     40 H3        -23.4373   18.9729   -7.5369 H           1 K26       0.2458
     41 H4        -21.5434   18.3098   -9.6317 H           1 K26       0.0525
     42 H5        -19.1807   18.7782   -9.7449 H           1 K26       0.0530
     43 H6        -17.2432   19.9028   -8.1113 H           1 K26       0.0442
     44 H7        -17.5308   21.6125   -7.8671 H           1 K26       0.0442
     45 H8        -17.1766   20.1477  -10.5099 H           1 K26       0.0771
     46 H9        -15.4908   21.6078   -8.8262 H           1 K26       0.1870
     47 H10       -12.9233   21.4394   -9.9130 H           1 K26       0.0821
     48 H11       -13.4697   22.9542  -12.3089 H           1 K26       0.1885
     49 H12       -10.3780   24.0377  -12.8655 H           1 K26       0.0803
     50 H13       -12.8753   23.2752  -14.4058 H           1 K26       0.0345
     51 H14       -13.5600   25.6578  -14.0363 H           1 K26       0.0235
     52 H15       -12.1276   25.8968  -13.0227 H           1 K26       0.0235
     53 H16       -13.4165   24.8031  -12.5145 H           1 K26       0.0235
     54 H17       -10.4245   24.8800  -15.2266 H           1 K26       0.0267
     55 H18       -11.9848   25.4544  -15.7774 H           1 K26       0.0267
     56 H19       -11.0704   24.1259  -17.5317 H           1 K26       0.0230
     57 H20       -12.4515   23.2485  -16.8616 H           1 K26       0.0230
     58 H21       -10.7982   22.7405  -16.4837 H           1 K26       0.0230
     59 H22        -9.7091   22.7658  -14.5931 H           1 K26       0.1883
     60 H23        -9.1636   19.3268  -14.5864 H           1 K26       0.0467
     61 H24        -8.2913   20.8603  -14.6834 H           1 K26       0.0467
     62 H25        -9.6013   20.5014  -15.8346 H           1 K26       0.0467
     63 H26       -13.9732   23.1169   -8.4371 H           1 K26       0.0453
     64 H27       -14.3459   24.1599   -9.7879 H           1 K26       0.0453
     65 H28       -12.6481   25.7136  -10.5847 H           1 K26       0.0530
     66 H29       -10.4856   26.7459  -10.3647 H           1 K26       0.0525
     67 H30        -8.0217   25.5606   -9.4263 H           1 K26       0.2458
     68 H31        -9.4662   23.9816   -7.3521 H           1 K26       0.0525
     69 H32       -11.6113   22.8999   -7.6111 H           1 K26       0.0530
@<TRIPOS>BOND
     1     1     2  ar
     2     1     7  ar
     3     2     3  ar
     4     3     4   1
     5     3     5  ar
     6     5     6  ar
     7     6     7  ar
     8     7     8   1
     9     8     9   1
    10     9    10   1
    11     9    14   1
    12    10    11  ar
    13    10    12  ar
    14    10    13  ar
    15    14    15  am
    16    15    16   2
    17    15    17   1
    18    17    18   1
    19    17    30   1
    20    18    19  am
    21    19    20   2
    22    19    21   1
    23    21    22   1
    24    21    26   1
    25    22    23   1
    26    22    24   1
    27    24    25   1
    28    26    27  am
    29    27    28   1
    30    27    29   2
    31    30    31   1
    32    31    32  ar
    33    31    37  ar
    34    32    33  ar
    35    33    34  ar
    36    34    35   1
    37    34    36  ar
    38    36    37  ar
    39     1    38   1
    40     2    39   1
    41     4    40   1
    42     5    41   1
    43     6    42   1
    44     8    43   1
    45     8    44   1
    46     9    45   1
    47    14    46   1
    48    17    47   1
    49    18    48   1
    50    21    49   1
    51    22    50   1
    52    23    51   1
    53    23    52   1
    54    23    53   1
    55    24    54   1
    56    24    55   1
    57    25    56   1
    58    25    57   1
    59    25    58   1
    60    26    59   1
    61    28    60   1
    62    28    61   1
    63    28    62   1
    64    30    63   1
    65    30    64   1
    66    32    65   1
    67    33    66   1
    68    35    67   1
    69    36    68   1
    70    37    69   1
@<TRIPOS>SUBSTRUCTURE
     1  K26      1

