@<TRIPOS>MOLECULE
2xhm_ligand_031
    69    70
SMALL
GAST_HUCK
****
This file was generated by PARSER (from files_GN.cpp)

@<TRIPOS>ATOM
      1 CAR        -4.5903   22.1238  -15.8667 C.ar        1 K26      -0.0686
      2 CAN        -3.2059   22.2708  -15.6975 C.ar        1 K26      -0.0398
      3 CBD        -2.7046   23.2190  -14.7851 C.ar        1 K26       0.0805
      4 OAI        -1.3721   23.3390  -14.5851 O.3         1 K26      -0.3376
      5 CAO        -3.5929   24.0601  -14.0879 C.ar        1 K26      -0.0398
      6 CAS        -4.9783   23.9209  -14.2786 C.ar        1 K26      -0.0686
      7 CBF        -5.5117   22.9267  -15.1462 C.ar        1 K26      -0.0501
      8 CAV        -6.9693   22.6679  -15.3570 C.3         1 K26       0.0145
      9 CBI        -7.9999   23.4943  -14.5272 C.3         1 K26       0.1207
     10 PBK        -9.5918   23.2020  -14.9488 P.3         1 K26       0.0863
     11 OAJ       -10.4174   24.2989  -14.4927 O.co2       1 K26      -0.5606
     12 OAK        -9.7809   23.1396  -16.3814 O.co2       1 K26      -0.5606
     13 OAG       -10.1299   21.9850  -14.3841 O.co2       1 K26      -0.5606
     14 NAY        -7.8713   23.1841  -13.1272 N.am        1 K26      -0.2653
     15 C          -7.7060   24.0443  -12.1277 C.2         1 K26       0.2049
     16 O          -7.4952   25.2331  -12.3489 O.2         1 K26      -0.3943
     17 CA         -7.9144   23.6149  -10.7468 C.3         1 K26       0.1389
     18 N          -9.2239   23.0617  -10.5465 N.am        1 K26      -0.2621
     19 CBB       -10.3850   23.6567  -10.8001 C.2         1 K26       0.2043
     20 OAF       -10.4226   24.7551  -11.3498 O.2         1 K26      -0.3944
     21 CBJ       -11.6169   23.0595  -10.2705 C.3         1 K26       0.1334
     22 CBG       -12.9767   23.5752  -10.8723 C.3         1 K26      -0.0037
     23 CAC       -13.0218   23.4089  -12.4208 C.3         1 K26      -0.0582
     24 CAT       -14.2539   22.9520  -10.2097 C.3         1 K26      -0.0491
     25 CAA       -14.4993   21.4458  -10.4480 C.3         1 K26      -0.0648
     26 NAX       -11.6396   23.1007   -8.8336 N.am        1 K26      -0.2656
     27 CAZ       -11.1020   23.9927   -8.0011 C.2         1 K26       0.1751
     28 CAB       -11.2150   23.7756   -6.5793 C.3         1 K26       0.0258
     29 OAD       -10.4706   24.9666   -8.4117 O.2         1 K26      -0.3972
     30 CB         -6.8404   22.5995  -10.2504 C.3         1 K26       0.0163
     31 CG         -5.4503   23.1241  -10.2823 C.ar        1 K26      -0.0493
     32 CD1        -5.0524   24.1414   -9.3836 C.ar        1 K26      -0.0685
     33 CE1        -3.7412   24.6544   -9.4028 C.ar        1 K26      -0.0398
     34 CZ         -2.8008   24.1564  -10.3256 C.ar        1 K26       0.0805
     35 OH         -1.5296   24.6226  -10.3492 O.3         1 K26      -0.3376
     36 CE2        -3.1841   23.1424  -11.2288 C.ar        1 K26      -0.0398
     37 CD2        -4.4989   22.6312  -11.2083 C.ar        1 K26      -0.0685
     38 H1         -4.9356   21.4142  -16.5195 H           1 K26       0.0530
     39 H2         -2.5609   21.6835  -16.2278 H           1 K26       0.0525
     40 H3         -1.0329   22.4077  -14.5498 H           1 K26       0.2458
     41 H4         -3.2346   24.7638  -13.4431 H           1 K26       0.0525
     42 H5         -5.6014   24.5582  -13.7726 H           1 K26       0.0530
     43 H6         -7.1526   21.6095  -15.1508 H           1 K26       0.0442
     44 H7         -7.1572   22.8360  -16.4193 H           1 K26       0.0442
     45 H8         -7.8254   24.5526  -14.7368 H           1 K26       0.0771
     46 H9         -8.0259   22.2578  -12.8784 H           1 K26       0.1870
     47 H10        -7.8574   24.4840  -10.0826 H           1 K26       0.0821
     48 H11        -9.2668   22.1940  -10.1186 H           1 K26       0.1885
     49 H12       -11.5593   21.9970  -10.5252 H           1 K26       0.0803
     50 H13       -13.0298   24.6433  -10.6649 H           1 K26       0.0345
     51 H14       -14.0137   23.6373  -12.8107 H           1 K26       0.0235
     52 H15       -12.7684   22.3860  -12.7119 H           1 K26       0.0235
     53 H16       -12.3177   24.0906  -12.8947 H           1 K26       0.0235
     54 H17       -15.1315   23.4914  -10.5755 H           1 K26       0.0267
     55 H18       -14.2210   23.1268   -9.1276 H           1 K26       0.0267
     56 H19       -15.4029   21.1365   -9.9165 H           1 K26       0.0230
     57 H20       -13.6670   20.8517  -10.0731 H           1 K26       0.0230
     58 H21       -14.6357   21.2369  -11.5106 H           1 K26       0.0230
     59 H22       -12.1340   22.3918   -8.4016 H           1 K26       0.1883
     60 H23       -10.6153   24.4888   -6.0087 H           1 K26       0.0467
     61 H24       -10.8745   22.7684   -6.3232 H           1 K26       0.0467
     62 H25       -12.2564   23.8828   -6.2721 H           1 K26       0.0467
     63 H26        -6.9217   21.6800  -10.8392 H           1 K26       0.0453
     64 H27        -7.0699   22.3177   -9.2167 H           1 K26       0.0453
     65 H28        -5.7180   24.5179   -8.6989 H           1 K26       0.0530
     66 H29        -3.4741   25.3879   -8.7364 H           1 K26       0.0525
     67 H30        -1.5493   25.4957   -9.8923 H           1 K26       0.2458
     68 H31        -2.5031   22.7705  -11.8974 H           1 K26       0.0525
     69 H32        -4.7473   21.8965  -11.8705 H           1 K26       0.0530
@<TRIPOS>BOND
     1     1     2  ar
     2     1     7  ar
     3     2     3  ar
     4     3     4   1
     5     3     5  ar
     6     5     6  ar
     7     6     7  ar
     8     7     8   1
     9     8     9   1
    10     9    10   1
    11     9    14   1
    12    10    11  ar
    13    10    12  ar
    14    10    13  ar
    15    14    15  am
    16    15    16   2
    17    15    17   1
    18    17    18   1
    19    17    30   1
    20    18    19  am
    21    19    20   2
    22    19    21   1
    23    21    22   1
    24    21    26   1
    25    22    23   1
    26    22    24   1
    27    24    25   1
    28    26    27  am
    29    27    28   1
    30    27    29   2
    31    30    31   1
    32    31    32  ar
    33    31    37  ar
    34    32    33  ar
    35    33    34  ar
    36    34    35   1
    37    34    36  ar
    38    36    37  ar
    39     1    38   1
    40     2    39   1
    41     4    40   1
    42     5    41   1
    43     6    42   1
    44     8    43   1
    45     8    44   1
    46     9    45   1
    47    14    46   1
    48    17    47   1
    49    18    48   1
    50    21    49   1
    51    22    50   1
    52    23    51   1
    53    23    52   1
    54    23    53   1
    55    24    54   1
    56    24    55   1
    57    25    56   1
    58    25    57   1
    59    25    58   1
    60    26    59   1
    61    28    60   1
    62    28    61   1
    63    28    62   1
    64    30    63   1
    65    30    64   1
    66    32    65   1
    67    33    66   1
    68    35    67   1
    69    36    68   1
    70    37    69   1
@<TRIPOS>SUBSTRUCTURE
     1  K26      1

