@<TRIPOS>MOLECULE
2xhm_ligand_026
    69    70
SMALL
GAST_HUCK
****
This file was generated by PARSER (from files_GN.cpp)

@<TRIPOS>ATOM
      1 CAR        -5.6178   25.0320  -14.8999 C.ar        1 K26      -0.0686
      2 CAN        -5.7204   23.9027  -14.0629 C.ar        1 K26      -0.0398
      3 CBD        -5.4376   22.6176  -14.5667 C.ar        1 K26       0.0805
      4 OAI        -5.4561   21.5262  -13.7586 O.3         1 K26      -0.3376
      5 CAO        -5.0598   22.4746  -15.9166 C.ar        1 K26      -0.0398
      6 CAS        -4.9764   23.6017  -16.7557 C.ar        1 K26      -0.0686
      7 CBF        -5.2470   24.9050  -16.2618 C.ar        1 K26      -0.0501
      8 CAV        -5.0598   26.1022  -17.1339 C.3         1 K26       0.0145
      9 CBI        -6.2193   27.1493  -17.0919 C.3         1 K26       0.1207
     10 PBK        -6.0229   28.3684  -18.2245 P.3         1 K26       0.0863
     11 OAJ        -6.8947   29.4818  -17.9425 O.co2       1 K26      -0.5606
     12 OAK        -4.6814   28.8941  -18.2097 O.co2       1 K26      -0.5606
     13 OAG        -6.3153   27.9182  -19.5632 O.co2       1 K26      -0.5606
     14 NAY        -7.4823   26.4979  -17.2873 N.am        1 K26      -0.2653
     15 C          -8.6864   26.9677  -16.9692 C.2         1 K26       0.2049
     16 O          -8.8236   28.0475  -16.4047 O.2         1 K26      -0.3943
     17 CA         -9.8686   26.1320  -17.1970 C.3         1 K26       0.1389
     18 N         -10.4893   25.5702  -16.0230 N.am        1 K26      -0.2621
     19 CBB       -10.0178   25.3864  -14.7875 C.2         1 K26       0.2043
     20 OAF        -8.8669   25.6768  -14.4849 O.2         1 K26      -0.3944
     21 CBJ       -10.8406   24.6623  -13.8173 C.3         1 K26       0.1334
     22 CBG       -10.7365   25.0441  -12.2883 C.3         1 K26      -0.0037
     23 CAC        -9.4670   24.5310  -11.5421 C.3         1 K26      -0.0582
     24 CAT       -11.0390   26.5506  -11.9781 C.3         1 K26      -0.0491
     25 CAA        -9.8671   27.5613  -12.0978 C.3         1 K26      -0.0648
     26 NAX       -10.7773   23.2405  -14.0444 N.am        1 K26      -0.2656
     27 CAZ        -9.7119   22.4465  -14.0764 C.2         1 K26       0.1751
     28 CAB        -9.9062   21.0411  -14.3262 C.3         1 K26       0.0258
     29 OAD        -8.5705   22.8691  -13.9469 O.2         1 K26      -0.3972
     30 CB        -10.9635   26.9065  -17.9947 C.3         1 K26       0.0163
     31 CG        -10.4659   27.5132  -19.2562 C.ar        1 K26      -0.0493
     32 CD1       -10.4002   26.7579  -20.4544 C.ar        1 K26      -0.0685
     33 CE1        -9.9027   27.3247  -21.6409 C.ar        1 K26      -0.0398
     34 CZ         -9.4600   28.6644  -21.6576 C.ar        1 K26       0.0805
     35 OH         -8.9894   29.2085  -22.8106 O.3         1 K26      -0.3376
     36 CE2        -9.5004   29.4198  -20.4636 C.ar        1 K26      -0.0398
     37 CD2       -10.0068   28.8524  -19.2795 C.ar        1 K26      -0.0685
     38 H1         -5.8091   25.9581  -14.5043 H           1 K26       0.0530
     39 H2         -5.9779   24.0193  -13.0788 H           1 K26       0.0525
     40 H3         -6.3656   21.4633  -13.3938 H           1 K26       0.2458
     41 H4         -4.8225   21.5454  -16.2832 H           1 K26       0.0525
     42 H5         -4.6917   23.4596  -17.7318 H           1 K26       0.0530
     43 H6         -4.9118   25.7833  -18.1713 H           1 K26       0.0442
     44 H7         -4.1309   26.5803  -16.8149 H           1 K26       0.0442
     45 H8         -6.1895   27.6183  -16.1037 H           1 K26       0.0771
     46 H9         -7.4549   25.6113  -17.6862 H           1 K26       0.1870
     47 H10        -9.5921   25.2696  -17.8167 H           1 K26       0.0821
     48 H11       -11.3728   25.1882  -16.1817 H           1 K26       0.1885
     49 H12       -11.8834   24.9036  -14.0674 H           1 K26       0.0803
     50 H13       -11.5643   24.4981  -11.8184 H           1 K26       0.0345
     51 H14        -9.4913   24.8639  -10.5005 H           1 K26       0.0235
     52 H15        -8.5557   24.9092  -12.0100 H           1 K26       0.0235
     53 H16        -9.4447   23.4418  -11.5410 H           1 K26       0.0235
     54 H17       -11.4150   26.6168  -10.9501 H           1 K26       0.0267
     55 H18       -11.8538   26.8922  -12.6238 H           1 K26       0.0267
     56 H19       -10.2379   28.5680  -11.8822 H           1 K26       0.0230
     57 H20        -9.4391   27.5564  -13.1040 H           1 K26       0.0230
     58 H21        -9.0811   27.3184  -11.3727 H           1 K26       0.0230
     59 H22       -11.6327   22.8021  -14.1992 H           1 K26       0.1883
     60 H23        -8.9670   20.4891  -14.2613 H           1 K26       0.0467
     61 H24       -10.3253   20.9049  -15.3261 H           1 K26       0.0467
     62 H25       -10.5944   20.6321  -13.5827 H           1 K26       0.0467
     63 H26       -11.3990   27.6838  -17.3576 H           1 K26       0.0453
     64 H27       -11.7862   26.2268  -18.2404 H           1 K26       0.0453
     65 H28       -10.7159   25.7841  -20.4728 H           1 K26       0.0530
     66 H29        -9.8655   26.7638  -22.4983 H           1 K26       0.0525
     67 H30        -8.9149   30.1741  -22.6438 H           1 K26       0.2458
     68 H31        -9.1669   30.3866  -20.4577 H           1 K26       0.0525
     69 H32       -10.0261   29.4171  -18.4252 H           1 K26       0.0530
@<TRIPOS>BOND
     1     1     2  ar
     2     1     7  ar
     3     2     3  ar
     4     3     4   1
     5     3     5  ar
     6     5     6  ar
     7     6     7  ar
     8     7     8   1
     9     8     9   1
    10     9    10   1
    11     9    14   1
    12    10    11  ar
    13    10    12  ar
    14    10    13  ar
    15    14    15  am
    16    15    16   2
    17    15    17   1
    18    17    18   1
    19    17    30   1
    20    18    19  am
    21    19    20   2
    22    19    21   1
    23    21    22   1
    24    21    26   1
    25    22    23   1
    26    22    24   1
    27    24    25   1
    28    26    27  am
    29    27    28   1
    30    27    29   2
    31    30    31   1
    32    31    32  ar
    33    31    37  ar
    34    32    33  ar
    35    33    34  ar
    36    34    35   1
    37    34    36  ar
    38    36    37  ar
    39     1    38   1
    40     2    39   1
    41     4    40   1
    42     5    41   1
    43     6    42   1
    44     8    43   1
    45     8    44   1
    46     9    45   1
    47    14    46   1
    48    17    47   1
    49    18    48   1
    50    21    49   1
    51    22    50   1
    52    23    51   1
    53    23    52   1
    54    23    53   1
    55    24    54   1
    56    24    55   1
    57    25    56   1
    58    25    57   1
    59    25    58   1
    60    26    59   1
    61    28    60   1
    62    28    61   1
    63    28    62   1
    64    30    63   1
    65    30    64   1
    66    32    65   1
    67    33    66   1
    68    35    67   1
    69    36    68   1
    70    37    69   1
@<TRIPOS>SUBSTRUCTURE
     1  K26      1

