@<TRIPOS>MOLECULE
2xhm_ligand_054
    69    70
SMALL
GAST_HUCK
****
This file was generated by PARSER (from files_GN.cpp)

@<TRIPOS>ATOM
      1 CAR        -8.3385   23.1773  -17.9089 C.ar        1 K26      -0.0686
      2 CAN        -8.3032   24.2431  -18.8259 C.ar        1 K26      -0.0398
      3 CBD        -9.4580   25.0160  -19.0578 C.ar        1 K26       0.0805
      4 OAI        -9.4502   26.0470  -19.9407 O.3         1 K26      -0.3376
      5 CAO       -10.6472   24.7074  -18.3740 C.ar        1 K26      -0.0398
      6 CAS       -10.6831   23.6365  -17.4613 C.ar        1 K26      -0.0686
      7 CBF        -9.5264   22.8625  -17.2040 C.ar        1 K26      -0.0501
      8 CAV        -9.5603   21.7232  -16.2371 C.3         1 K26       0.0145
      9 CBI        -9.4890   22.0754  -14.7182 C.3         1 K26       0.1207
     10 PBK        -8.1213   22.9223  -14.2613 P.3         1 K26       0.0863
     11 OAJ        -6.9379   22.1131  -14.4134 O.co2       1 K26      -0.5606
     12 OAK        -7.9350   24.1192  -15.0429 O.co2       1 K26      -0.5606
     13 OAG        -8.1956   23.3109  -12.8752 O.co2       1 K26      -0.5606
     14 NAY       -10.6815   22.7754  -14.3272 N.am        1 K26      -0.2653
     15 C         -11.4725   22.5286  -13.2888 C.2         1 K26       0.2049
     16 O         -11.1757   21.6622  -12.4736 O.2         1 K26      -0.3943
     17 CA        -12.7329   23.2769  -13.1547 C.3         1 K26       0.1389
     18 N         -13.3758   23.0681  -11.8827 N.am        1 K26      -0.2621
     19 CBB       -14.1798   22.0685  -11.5253 C.2         1 K26       0.2043
     20 OAF       -14.5304   21.2244  -12.3435 O.2         1 K26      -0.3944
     21 CBJ       -14.5627   21.8586  -10.1291 C.3         1 K26       0.1334
     22 CBG       -16.1124   21.6249   -9.9737 C.3         1 K26      -0.0037
     23 CAC       -16.5040   21.2344   -8.5182 C.3         1 K26      -0.0582
     24 CAT       -17.0516   22.7303  -10.5674 C.3         1 K26      -0.0491
     25 CAA       -17.0360   24.1324   -9.9116 C.3         1 K26      -0.0648
     26 NAX       -14.1009   22.8824   -9.2243 N.am        1 K26      -0.2656
     27 CAZ       -12.8483   23.2914   -9.0472 C.2         1 K26       0.1751
     28 CAB       -12.5777   24.3656   -8.1201 C.3         1 K26       0.0258
     29 OAD       -11.9169   22.7763   -9.6580 O.2         1 K26      -0.3972
     30 CB        -12.5986   24.8135  -13.4072 C.3         1 K26       0.0163
     31 CG        -11.7384   25.5393  -12.4321 C.ar        1 K26      -0.0493
     32 CD1       -12.2668   25.9872  -11.2002 C.ar        1 K26      -0.0685
     33 CE1       -11.4487   26.6371  -10.2623 C.ar        1 K26      -0.0398
     34 CZ        -10.0867   26.8484  -10.5367 C.ar        1 K26       0.0805
     35 OH         -9.2978   27.4514   -9.6148 O.3         1 K26      -0.3376
     36 CE2        -9.5520   26.4404  -11.7733 C.ar        1 K26      -0.0398
     37 CD2       -10.3763   25.7981  -12.7178 C.ar        1 K26      -0.0685
     38 H1         -7.4861   22.6327  -17.7549 H           1 K26       0.0530
     39 H2         -7.4358   24.4545  -19.3224 H           1 K26       0.0525
     40 H3         -8.5416   26.0892  -20.3073 H           1 K26       0.2458
     41 H4        -11.4939   25.2548  -18.5453 H           1 K26       0.0525
     42 H5        -11.5699   23.4140  -17.0022 H           1 K26       0.0530
     43 H6         -8.7474   21.0329  -16.4605 H           1 K26       0.0442
     44 H7        -10.4744   21.1547  -16.4142 H           1 K26       0.0442
     45 H8         -9.4419   21.1188  -14.1872 H           1 K26       0.0771
     46 H9        -10.9551   23.5019  -14.9032 H           1 K26       0.1870
     47 H10       -13.4006   22.9090  -13.9414 H           1 K26       0.0821
     48 H11       -13.1203   23.6794  -11.1734 H           1 K26       0.1885
     49 H12       -14.0773   20.9258   -9.8193 H           1 K26       0.0803
     50 H13       -16.3413   20.7281  -10.5587 H           1 K26       0.0345
     51 H14       -17.5554   20.9369   -8.4729 H           1 K26       0.0235
     52 H15       -16.3517   22.0649   -7.8278 H           1 K26       0.0235
     53 H16       -15.9015   20.3903   -8.1726 H           1 K26       0.0235
     54 H17       -18.0838   22.3613  -10.5212 H           1 K26       0.0267
     55 H18       -16.8189   22.8561  -11.6298 H           1 K26       0.0267
     56 H19       -17.7309   24.7882  -10.4393 H           1 K26       0.0230
     57 H20       -16.0444   24.5755   -9.9665 H           1 K26       0.0230
     58 H21       -17.3508   24.0704   -8.8712 H           1 K26       0.0230
     59 H22       -14.7697   23.3159   -8.6774 H           1 K26       0.1883
     60 H23       -11.5641   24.7592   -8.2418 H           1 K26       0.0467
     61 H24       -12.6811   24.0108   -7.0930 H           1 K26       0.0467
     62 H25       -13.2848   25.1840   -8.2817 H           1 K26       0.0467
     63 H26       -13.6001   25.2544  -13.3961 H           1 K26       0.0453
     64 H27       -12.2244   24.9797  -14.4209 H           1 K26       0.0453
     65 H28       -13.2525   25.8362  -10.9756 H           1 K26       0.0530
     66 H29       -11.8452   26.9479   -9.3726 H           1 K26       0.0525
     67 H30        -8.7952   26.7194   -9.1939 H           1 K26       0.2458
     68 H31        -8.5656   26.6117  -11.9902 H           1 K26       0.0525
     69 H32        -9.9738   25.5189  -13.6152 H           1 K26       0.0530
@<TRIPOS>BOND
     1     1     2  ar
     2     1     7  ar
     3     2     3  ar
     4     3     4   1
     5     3     5  ar
     6     5     6  ar
     7     6     7  ar
     8     7     8   1
     9     8     9   1
    10     9    10   1
    11     9    14   1
    12    10    11  ar
    13    10    12  ar
    14    10    13  ar
    15    14    15  am
    16    15    16   2
    17    15    17   1
    18    17    18   1
    19    17    30   1
    20    18    19  am
    21    19    20   2
    22    19    21   1
    23    21    22   1
    24    21    26   1
    25    22    23   1
    26    22    24   1
    27    24    25   1
    28    26    27  am
    29    27    28   1
    30    27    29   2
    31    30    31   1
    32    31    32  ar
    33    31    37  ar
    34    32    33  ar
    35    33    34  ar
    36    34    35   1
    37    34    36  ar
    38    36    37  ar
    39     1    38   1
    40     2    39   1
    41     4    40   1
    42     5    41   1
    43     6    42   1
    44     8    43   1
    45     8    44   1
    46     9    45   1
    47    14    46   1
    48    17    47   1
    49    18    48   1
    50    21    49   1
    51    22    50   1
    52    23    51   1
    53    23    52   1
    54    23    53   1
    55    24    54   1
    56    24    55   1
    57    25    56   1
    58    25    57   1
    59    25    58   1
    60    26    59   1
    61    28    60   1
    62    28    61   1
    63    28    62   1
    64    30    63   1
    65    30    64   1
    66    32    65   1
    67    33    66   1
    68    35    67   1
    69    36    68   1
    70    37    69   1
@<TRIPOS>SUBSTRUCTURE
     1  K26      1

