@<TRIPOS>MOLECULE
2xhm_ligand_023
    69    70
SMALL
GAST_HUCK
****
This file was generated by PARSER (from files_GN.cpp)

@<TRIPOS>ATOM
      1 CAR       -12.5489   25.3782  -11.1906 C.ar        1 K26      -0.0686
      2 CAN       -11.6255   26.2968  -11.7326 C.ar        1 K26      -0.0398
      3 CBD       -10.5795   26.8074  -10.9393 C.ar        1 K26       0.0805
      4 OAI        -9.6761   27.6885  -11.4427 O.3         1 K26      -0.3376
      5 CAO       -10.4572   26.3875   -9.6052 C.ar        1 K26      -0.0398
      6 CAS       -11.3722   25.4576   -9.0700 C.ar        1 K26      -0.0686
      7 CBF       -12.4277   24.9280   -9.8534 C.ar        1 K26      -0.0501
      8 CAV       -13.4283   23.9937   -9.2468 C.3         1 K26       0.0145
      9 CBI       -14.2119   23.0052  -10.1708 C.3         1 K26       0.1207
     10 PBK       -13.2775   21.9561  -11.0836 P.3         1 K26       0.0863
     11 OAJ       -12.2102   22.6267  -11.7772 O.co2       1 K26      -0.5606
     12 OAK       -12.7132   20.8856  -10.3079 O.co2       1 K26      -0.5606
     13 OAG       -14.1246   21.4308  -12.1198 O.co2       1 K26      -0.5606
     14 NAY       -15.1024   22.2114   -9.3597 N.am        1 K26      -0.2653
     15 C         -16.3114   21.7539   -9.6815 C.2         1 K26       0.2049
     16 O         -16.7950   21.9917  -10.7813 O.2         1 K26      -0.3943
     17 CA        -17.1475   21.0507   -8.6973 C.3         1 K26       0.1389
     18 N         -18.1040   21.8749   -7.9992 N.am        1 K26      -0.2621
     19 CBB       -18.4600   23.1462   -8.1447 C.2         1 K26       0.2043
     20 OAF       -17.8611   23.8988   -8.9042 O.2         1 K26      -0.3944
     21 CBJ       -19.6652   23.6776   -7.5152 C.3         1 K26       0.1334
     22 CBG       -20.3773   22.8296   -6.3979 C.3         1 K26      -0.0037
     23 CAC       -19.4679   22.7076   -5.1351 C.3         1 K26      -0.0582
     24 CAT       -21.7967   23.3752   -5.9982 C.3         1 K26      -0.0491
     25 CAA       -22.9719   22.7514   -6.7926 C.3         1 K26      -0.0648
     26 NAX       -20.5386   23.8936   -8.6363 N.am        1 K26      -0.2656
     27 CAZ       -20.6389   25.0070   -9.3495 C.2         1 K26       0.1751
     28 CAB       -21.4088   24.9799  -10.5717 C.3         1 K26       0.0258
     29 OAD       -20.0583   26.0315   -9.0134 O.2         1 K26      -0.3972
     30 CB        -17.8548   19.7720   -9.3034 C.3         1 K26       0.0163
     31 CG        -19.3395   19.6517   -9.1252 C.ar        1 K26      -0.0493
     32 CD1       -19.8911   19.4369   -7.8385 C.ar        1 K26      -0.0685
     33 CE1       -21.2858   19.3812   -7.6484 C.ar        1 K26      -0.0398
     34 CZ        -22.1594   19.5346   -8.7391 C.ar        1 K26       0.0805
     35 OH        -23.5075   19.5239   -8.5626 O.3         1 K26      -0.3376
     36 CE2       -21.6264   19.7301  -10.0280 C.ar        1 K26      -0.0398
     37 CD2       -20.2284   19.7845  -10.2177 C.ar        1 K26      -0.0685
     38 H1        -13.3071   25.0381  -11.7837 H           1 K26       0.0530
     39 H2        -11.7149   26.5969  -12.7072 H           1 K26       0.0525
     40 H3        -10.1824   28.4982  -11.6702 H           1 K26       0.2458
     41 H4         -9.7092   26.7607   -9.0171 H           1 K26       0.0525
     42 H5        -11.2656   25.1843   -8.0909 H           1 K26       0.0530
     43 H6        -14.1673   24.6297   -8.7576 H           1 K26       0.0442
     44 H7        -12.9445   23.4037   -8.4620 H           1 K26       0.0442
     45 H8        -14.7938   23.6070  -10.8681 H           1 K26       0.0771
     46 H9        -14.7675   21.9736   -8.4815 H           1 K26       0.1870
     47 H10       -16.4882   20.6933   -7.8958 H           1 K26       0.0821
     48 H11       -18.6062   21.3914   -7.3317 H           1 K26       0.1885
     49 H12       -19.3916   24.6224   -7.0458 H           1 K26       0.0803
     50 H13       -20.5168   21.8086   -6.7746 H           1 K26       0.0345
     51 H14       -19.9188   22.0217   -4.4104 H           1 K26       0.0235
     52 H15       -19.3401   23.6837   -4.6630 H           1 K26       0.0235
     53 H16       -18.4796   22.3138   -5.3910 H           1 K26       0.0235
     54 H17       -21.8198   24.4598   -6.1198 H           1 K26       0.0267
     55 H18       -22.0004   23.1716   -4.9425 H           1 K26       0.0267
     56 H19       -23.9106   23.2268   -6.4935 H           1 K26       0.0230
     57 H20       -23.0443   21.6812   -6.5807 H           1 K26       0.0230
     58 H21       -22.8471   22.8861   -7.8666 H           1 K26       0.0230
     59 H22       -21.0067   23.1114   -8.9863 H           1 K26       0.1883
     60 H23       -21.3171   25.9166  -11.1246 H           1 K26       0.0467
     61 H24       -22.4598   24.8171  -10.3351 H           1 K26       0.0467
     62 H25       -21.0582   24.1676  -11.2125 H           1 K26       0.0467
     63 H26       -17.4022   18.8829   -8.8539 H           1 K26       0.0453
     64 H27       -17.6303   19.6859  -10.3701 H           1 K26       0.0453
     65 H28       -19.2793   19.3349   -7.0272 H           1 K26       0.0530
     66 H29       -21.6624   19.2379   -6.7069 H           1 K26       0.0525
     67 H30       -23.7029   18.7997   -7.9222 H           1 K26       0.2458
     68 H31       -22.2499   19.8400  -10.8279 H           1 K26       0.0525
     69 H32       -19.8649   19.9391  -11.1648 H           1 K26       0.0530
@<TRIPOS>BOND
     1     1     2  ar
     2     1     7  ar
     3     2     3  ar
     4     3     4   1
     5     3     5  ar
     6     5     6  ar
     7     6     7  ar
     8     7     8   1
     9     8     9   1
    10     9    10   1
    11     9    14   1
    12    10    11  ar
    13    10    12  ar
    14    10    13  ar
    15    14    15  am
    16    15    16   2
    17    15    17   1
    18    17    18   1
    19    17    30   1
    20    18    19  am
    21    19    20   2
    22    19    21   1
    23    21    22   1
    24    21    26   1
    25    22    23   1
    26    22    24   1
    27    24    25   1
    28    26    27  am
    29    27    28   1
    30    27    29   2
    31    30    31   1
    32    31    32  ar
    33    31    37  ar
    34    32    33  ar
    35    33    34  ar
    36    34    35   1
    37    34    36  ar
    38    36    37  ar
    39     1    38   1
    40     2    39   1
    41     4    40   1
    42     5    41   1
    43     6    42   1
    44     8    43   1
    45     8    44   1
    46     9    45   1
    47    14    46   1
    48    17    47   1
    49    18    48   1
    50    21    49   1
    51    22    50   1
    52    23    51   1
    53    23    52   1
    54    23    53   1
    55    24    54   1
    56    24    55   1
    57    25    56   1
    58    25    57   1
    59    25    58   1
    60    26    59   1
    61    28    60   1
    62    28    61   1
    63    28    62   1
    64    30    63   1
    65    30    64   1
    66    32    65   1
    67    33    66   1
    68    35    67   1
    69    36    68   1
    70    37    69   1
@<TRIPOS>SUBSTRUCTURE
     1  K26      1

