@<TRIPOS>MOLECULE
2xhm_ligand_006
    69    70
SMALL
GAST_HUCK
****
This file was generated by PARSER (from files_GN.cpp)

@<TRIPOS>ATOM
      1 CAR        -5.5780   24.4082  -11.1153 C.ar        1 K26      -0.0686
      2 CAN        -4.8050   23.2703  -11.4054 C.ar        1 K26      -0.0398
      3 CBD        -4.4467   22.9712  -12.7411 C.ar        1 K26       0.0805
      4 OAI        -3.7310   21.8475  -13.0180 O.3         1 K26      -0.3376
      5 CAO        -4.8401   23.8373  -13.7763 C.ar        1 K26      -0.0398
      6 CAS        -5.6217   24.9720  -13.4753 C.ar        1 K26      -0.0686
      7 CBF        -6.0271   25.2553  -12.1461 C.ar        1 K26      -0.0501
      8 CAV        -6.8480   26.4587  -11.8315 C.3         1 K26       0.0145
      9 CBI        -8.3818   26.2177  -11.6381 C.3         1 K26       0.1207
     10 PBK        -9.1862   25.5993  -12.9681 P.3         1 K26       0.0863
     11 OAJ        -9.6960   26.6748  -13.7919 O.co2       1 K26      -0.5606
     12 OAK        -8.3578   24.7455  -13.7906 O.co2       1 K26      -0.5606
     13 OAG       -10.3226   24.7975  -12.5613 O.co2       1 K26      -0.5606
     14 NAY        -8.6736   25.3842  -10.4963 N.am        1 K26      -0.2653
     15 C          -9.7219   25.4882   -9.6820 C.2         1 K26       0.2049
     16 O         -10.5552   26.3810   -9.8243 O.2         1 K26      -0.3943
     17 CA         -9.8886   24.5377   -8.5871 C.3         1 K26       0.1389
     18 N          -9.2540   25.0991   -7.4175 N.am        1 K26      -0.2621
     19 CBB        -7.9474   25.1249   -7.1800 C.2         1 K26       0.2043
     20 OAF        -7.1684   24.5327   -7.9176 O.2         1 K26      -0.3944
     21 CBJ        -7.4043   25.8893   -6.0611 C.3         1 K26       0.1334
     22 CBG        -6.9923   27.3571   -6.4745 C.3         1 K26      -0.0037
     23 CAC        -5.9485   27.3836   -7.6360 C.3         1 K26      -0.0582
     24 CAT        -8.2521   28.2409   -6.7540 C.3         1 K26      -0.0491
     25 CAA        -8.3432   28.8614   -8.1699 C.3         1 K26      -0.0648
     26 NAX        -6.3118   25.1969   -5.4272 N.am        1 K26      -0.2656
     27 CAZ        -6.3484   24.0478   -4.7761 C.2         1 K26       0.1751
     28 CAB        -5.1173   23.5182   -4.2461 C.3         1 K26       0.0258
     29 OAD        -7.3909   23.4188   -4.6203 O.2         1 K26      -0.3972
     30 CB        -11.3803   24.2024   -8.2708 C.3         1 K26       0.0163
     31 CG        -12.2015   23.5449   -9.3392 C.ar        1 K26      -0.0493
     32 CD1       -11.6638   22.5247  -10.1652 C.ar        1 K26      -0.0685
     33 CE1       -12.5000   21.7620  -11.0072 C.ar        1 K26      -0.0398
     34 CZ        -13.8835   22.0139  -11.0563 C.ar        1 K26       0.0805
     35 OH        -14.6822   21.2356  -11.8230 O.3         1 K26      -0.3376
     36 CE2       -14.4237   23.0595  -10.2846 C.ar        1 K26      -0.0398
     37 CD2       -13.5905   23.8197   -9.4400 C.ar        1 K26      -0.0685
     38 H1         -5.8341   24.5829  -10.1579 H           1 K26       0.0530
     39 H2         -4.4900   22.6472  -10.6374 H           1 K26       0.0525
     40 H3         -2.7960   22.0882  -12.8053 H           1 K26       0.2458
     41 H4         -4.5898   23.6275  -14.7354 H           1 K26       0.0525
     42 H5         -5.8987   25.5986  -14.2523 H           1 K26       0.0530
     43 H6         -6.7144   27.2164  -12.6147 H           1 K26       0.0442
     44 H7         -6.4687   26.9056  -10.9119 H           1 K26       0.0442
     45 H8         -8.8139   27.2113  -11.4843 H           1 K26       0.0771
     46 H9         -8.0555   24.6478  -10.3311 H           1 K26       0.1870
     47 H10        -9.4040   23.5841   -8.8342 H           1 K26       0.0821
     48 H11        -9.8322   25.5776   -6.7958 H           1 K26       0.1885
     49 H12        -8.1821   25.9732   -5.2908 H           1 K26       0.0803
     50 H13        -6.4827   27.7863   -5.5995 H           1 K26       0.0345
     51 H14        -5.5114   28.3733   -7.7284 H           1 K26       0.0235
     52 H15        -6.4220   27.1191   -8.5763 H           1 K26       0.0235
     53 H16        -5.1301   26.6789   -7.4477 H           1 K26       0.0235
     54 H17        -8.2504   29.0632   -6.0341 H           1 K26       0.0267
     55 H18        -9.1549   27.6457   -6.5940 H           1 K26       0.0267
     56 H19        -9.1463   29.6022   -8.1766 H           1 K26       0.0230
     57 H20        -8.5766   28.0929   -8.9115 H           1 K26       0.0230
     58 H21        -7.4040   29.3603   -8.4407 H           1 K26       0.0230
     59 H22        -5.4411   25.6220   -5.4891 H           1 K26       0.1883
     60 H23        -5.2491   22.5071   -3.8444 H           1 K26       0.0467
     61 H24        -4.7597   24.1755   -3.4481 H           1 K26       0.0467
     62 H25        -4.3603   23.4758   -5.0333 H           1 K26       0.0467
     63 H26       -11.8732   25.1154   -7.9184 H           1 K26       0.0453
     64 H27       -11.3817   23.5054   -7.4256 H           1 K26       0.0453
     65 H28       -10.6623   22.3049  -10.1222 H           1 K26       0.0530
     66 H29       -12.0968   21.0118  -11.5726 H           1 K26       0.0525
     67 H30       -14.6440   20.3505  -11.3851 H           1 K26       0.2458
     68 H31       -15.4249   23.2509  -10.3092 H           1 K26       0.0525
     69 H32       -14.0202   24.5445   -8.8488 H           1 K26       0.0530
@<TRIPOS>BOND
     1     1     2  ar
     2     1     7  ar
     3     2     3  ar
     4     3     4   1
     5     3     5  ar
     6     5     6  ar
     7     6     7  ar
     8     7     8   1
     9     8     9   1
    10     9    10   1
    11     9    14   1
    12    10    11  ar
    13    10    12  ar
    14    10    13  ar
    15    14    15  am
    16    15    16   2
    17    15    17   1
    18    17    18   1
    19    17    30   1
    20    18    19  am
    21    19    20   2
    22    19    21   1
    23    21    22   1
    24    21    26   1
    25    22    23   1
    26    22    24   1
    27    24    25   1
    28    26    27  am
    29    27    28   1
    30    27    29   2
    31    30    31   1
    32    31    32  ar
    33    31    37  ar
    34    32    33  ar
    35    33    34  ar
    36    34    35   1
    37    34    36  ar
    38    36    37  ar
    39     1    38   1
    40     2    39   1
    41     4    40   1
    42     5    41   1
    43     6    42   1
    44     8    43   1
    45     8    44   1
    46     9    45   1
    47    14    46   1
    48    17    47   1
    49    18    48   1
    50    21    49   1
    51    22    50   1
    52    23    51   1
    53    23    52   1
    54    23    53   1
    55    24    54   1
    56    24    55   1
    57    25    56   1
    58    25    57   1
    59    25    58   1
    60    26    59   1
    61    28    60   1
    62    28    61   1
    63    28    62   1
    64    30    63   1
    65    30    64   1
    66    32    65   1
    67    33    66   1
    68    35    67   1
    69    36    68   1
    70    37    69   1
@<TRIPOS>SUBSTRUCTURE
     1  K26      1

