@<TRIPOS>MOLECULE
2xhm_ligand_003
    69    70
SMALL
GAST_HUCK
****
This file was generated by PARSER (from files_GN.cpp)

@<TRIPOS>ATOM
      1 CAR       -19.4919   20.4196   -7.8335 C.ar        1 K26      -0.0686
      2 CAN       -19.6522   19.4675   -6.8095 C.ar        1 K26      -0.0398
      3 CBD       -18.6139   19.2466   -5.8864 C.ar        1 K26       0.0805
      4 OAI       -18.7814   18.3428   -4.8799 O.3         1 K26      -0.3376
      5 CAO       -17.4016   19.9480   -6.0296 C.ar        1 K26      -0.0398
      6 CAS       -17.2400   20.8949   -7.0590 C.ar        1 K26      -0.0686
      7 CBF       -18.2913   21.1613   -7.9659 C.ar        1 K26      -0.0501
      8 CAV       -18.1856   22.2619   -8.9653 C.3         1 K26       0.0145
      9 CBI       -17.1893   22.0503  -10.1745 C.3         1 K26       0.1207
     10 PBK       -17.8628   22.6790  -11.5744 P.3         1 K26       0.0863
     11 OAJ       -18.5941   23.8990  -11.3259 O.co2       1 K26      -0.5606
     12 OAK       -16.8791   23.0165  -12.5796 O.co2       1 K26      -0.5606
     13 OAG       -18.7692   21.7372  -12.2009 O.co2       1 K26      -0.5606
     14 NAY       -15.8884   22.6173   -9.8586 N.am        1 K26      -0.2653
     15 C         -14.8165   22.6902  -10.6458 C.2         1 K26       0.2049
     16 O         -14.8689   22.1893  -11.7632 O.2         1 K26      -0.3943
     17 CA        -13.5364   23.2324  -10.1786 C.3         1 K26       0.1389
     18 N         -12.5762   23.3351  -11.2533 N.am        1 K26      -0.2621
     19 CBB       -11.5037   22.5788  -11.4666 C.2         1 K26       0.2043
     20 OAF       -11.3729   21.5170  -10.8624 O.2         1 K26      -0.3944
     21 CBJ       -10.4702   23.0108  -12.4166 C.3         1 K26       0.1334
     22 CBG       -10.7426   22.4938  -13.8815 C.3         1 K26      -0.0037
     23 CAC       -11.8710   23.3299  -14.5631 C.3         1 K26      -0.0582
     24 CAT        -9.4522   22.4575  -14.7855 C.3         1 K26      -0.0491
     25 CAA        -9.6272   21.8372  -16.1903 C.3         1 K26      -0.0648
     26 NAX        -9.1792   22.5994  -11.9234 N.am        1 K26      -0.2656
     27 CAZ        -8.3416   23.2976  -11.1711 C.2         1 K26       0.1751
     28 CAB        -7.0664   22.7083  -10.8292 C.3         1 K26       0.0258
     29 OAD        -8.6188   24.4137  -10.7408 O.2         1 K26      -0.3972
     30 CB        -13.6243   24.6612   -9.5430 C.3         1 K26       0.0163
     31 CG        -12.3432   25.0837   -8.9024 C.ar        1 K26      -0.0493
     32 CD1       -11.7275   24.2861   -7.9107 C.ar        1 K26      -0.0685
     33 CE1       -10.5155   24.6845   -7.3177 C.ar        1 K26      -0.0398
     34 CZ         -9.8891   25.8771   -7.7291 C.ar        1 K26       0.0805
     35 OH         -8.7507   26.2986   -7.1339 O.3         1 K26      -0.3376
     36 CE2       -10.4736   26.6646   -8.7330 C.ar        1 K26      -0.0398
     37 CD2       -11.6910   26.2732   -9.3186 C.ar        1 K26      -0.0685
     38 H1        -20.2785   20.5797   -8.4635 H           1 K26       0.0530
     39 H2        -20.5379   18.9572   -6.7127 H           1 K26       0.0525
     40 H3        -18.8887   18.8952   -4.0699 H           1 K26       0.2458
     41 H4        -16.6471   19.7781   -5.3604 H           1 K26       0.0525
     42 H5        -16.3607   21.4054   -7.1167 H           1 K26       0.0530
     43 H6        -17.9020   23.1732   -8.4173 H           1 K26       0.0442
     44 H7        -19.2039   22.4590   -9.3289 H           1 K26       0.0442
     45 H8        -17.0651   20.9702  -10.3162 H           1 K26       0.0771
     46 H9        -15.7882   22.9683   -8.9513 H           1 K26       0.1870
     47 H10       -13.1875   22.5459   -9.3984 H           1 K26       0.0821
     48 H11       -12.6770   24.1097  -11.8311 H           1 K26       0.1885
     49 H12       -10.4941   24.1089  -12.4579 H           1 K26       0.0803
     50 H13       -11.0994   21.4548  -13.8182 H           1 K26       0.0345
     51 H14       -12.1091   22.9373  -15.5500 H           1 K26       0.0235
     52 H15       -11.5650   24.3752  -14.6733 H           1 K26       0.0235
     53 H16       -12.7870   23.2937  -13.9740 H           1 K26       0.0235
     54 H17        -8.6897   21.8514  -14.2827 H           1 K26       0.0267
     55 H18        -9.0551   23.4701  -14.8895 H           1 K26       0.0267
     56 H19        -8.6472   21.6618  -16.6453 H           1 K26       0.0230
     57 H20       -10.1867   22.5070  -16.8511 H           1 K26       0.0230
     58 H21       -10.1549   20.8787  -16.1264 H           1 K26       0.0230
     59 H22        -8.8697   21.7241  -12.2036 H           1 K26       0.1883
     60 H23        -6.4659   23.3752  -10.2030 H           1 K26       0.0467
     61 H24        -6.5024   22.4948  -11.7437 H           1 K26       0.0467
     62 H25        -7.2272   21.7709  -10.2839 H           1 K26       0.0467
     63 H26       -14.4016   24.6995   -8.7796 H           1 K26       0.0453
     64 H27       -13.9213   25.3754  -10.3143 H           1 K26       0.0453
     65 H28       -12.1614   23.4100   -7.6016 H           1 K26       0.0530
     66 H29       -10.0892   24.1047   -6.5932 H           1 K26       0.0525
     67 H30        -9.0293   26.5157   -6.2118 H           1 K26       0.2458
     68 H31       -10.0204   27.5268   -9.0472 H           1 K26       0.0525
     69 H32       -12.0985   26.8537  -10.0548 H           1 K26       0.0530
@<TRIPOS>BOND
     1     1     2  ar
     2     1     7  ar
     3     2     3  ar
     4     3     4   1
     5     3     5  ar
     6     5     6  ar
     7     6     7  ar
     8     7     8   1
     9     8     9   1
    10     9    10   1
    11     9    14   1
    12    10    11  ar
    13    10    12  ar
    14    10    13  ar
    15    14    15  am
    16    15    16   2
    17    15    17   1
    18    17    18   1
    19    17    30   1
    20    18    19  am
    21    19    20   2
    22    19    21   1
    23    21    22   1
    24    21    26   1
    25    22    23   1
    26    22    24   1
    27    24    25   1
    28    26    27  am
    29    27    28   1
    30    27    29   2
    31    30    31   1
    32    31    32  ar
    33    31    37  ar
    34    32    33  ar
    35    33    34  ar
    36    34    35   1
    37    34    36  ar
    38    36    37  ar
    39     1    38   1
    40     2    39   1
    41     4    40   1
    42     5    41   1
    43     6    42   1
    44     8    43   1
    45     8    44   1
    46     9    45   1
    47    14    46   1
    48    17    47   1
    49    18    48   1
    50    21    49   1
    51    22    50   1
    52    23    51   1
    53    23    52   1
    54    23    53   1
    55    24    54   1
    56    24    55   1
    57    25    56   1
    58    25    57   1
    59    25    58   1
    60    26    59   1
    61    28    60   1
    62    28    61   1
    63    28    62   1
    64    30    63   1
    65    30    64   1
    66    32    65   1
    67    33    66   1
    68    35    67   1
    69    36    68   1
    70    37    69   1
@<TRIPOS>SUBSTRUCTURE
     1  K26      1

