@<TRIPOS>MOLECULE
2xhm_ligand_060
    69    70
SMALL
GAST_HUCK
****
This file was generated by PARSER (from files_GN.cpp)

@<TRIPOS>ATOM
      1 CAR       -11.8665   22.4981   -9.9917 C.ar        1 K26      -0.0686
      2 CAN       -12.6118   21.6867  -10.8672 C.ar        1 K26      -0.0398
      3 CBD       -13.9889   21.9188  -11.0438 C.ar        1 K26       0.0805
      4 OAI       -14.7073   21.1522  -11.9011 O.3         1 K26      -0.3376
      5 CAO       -14.6176   22.9624  -10.3429 C.ar        1 K26      -0.0398
      6 CAS       -13.8746   23.7628   -9.4571 C.ar        1 K26      -0.0686
      7 CBF       -12.4900   23.5421   -9.2690 C.ar        1 K26      -0.0501
      8 CAV       -11.6902   24.4226   -8.3659 C.3         1 K26       0.0145
      9 CBI       -10.7285   25.4190   -9.0925 C.3         1 K26       0.1207
     10 PBK       -11.4982   26.4796  -10.1408 P.3         1 K26       0.0863
     11 OAJ       -12.5083   27.2422   -9.4436 O.co2       1 K26      -0.5606
     12 OAK       -10.5610   27.4129  -10.7125 O.co2       1 K26      -0.5606
     13 OAG       -12.1554   25.8217  -11.2430 O.co2       1 K26      -0.5606
     14 NAY       -10.0082   26.1661   -8.0961 N.am        1 K26      -0.2653
     15 C          -8.9921   27.0030   -8.2941 C.2         1 K26       0.2049
     16 O          -8.5185   27.1340   -9.4163 O.2         1 K26      -0.3943
     17 CA         -8.4148   27.7365   -7.1657 C.3         1 K26       0.1389
     18 N          -7.5581   26.9251   -6.3453 N.am        1 K26      -0.2621
     19 CBB        -6.4158   26.3325   -6.6590 C.2         1 K26       0.2043
     20 OAF        -5.9599   26.4461   -7.7895 O.2         1 K26      -0.3944
     21 CBJ        -5.7291   25.4288   -5.7376 C.3         1 K26       0.1334
     22 CBG        -6.3117   23.9564   -5.7110 C.3         1 K26      -0.0037
     23 CAC        -5.8695   23.1585   -4.4425 C.3         1 K26      -0.0582
     24 CAT        -7.8078   23.6823   -6.0941 C.3         1 K26      -0.0491
     25 CAA        -8.8899   23.8116   -5.0041 C.3         1 K26      -0.0648
     26 NAX        -5.3282   25.9982   -4.4715 N.am        1 K26      -0.2656
     27 CAZ        -6.0484   26.3494   -3.4088 C.2         1 K26       0.1751
     28 CAB        -5.3275   26.8757   -2.2689 C.3         1 K26       0.0258
     29 OAD        -7.2637   26.2034   -3.3594 O.2         1 K26      -0.3972
     30 CB         -7.8541   29.1616   -7.4976 C.3         1 K26       0.0163
     31 CG         -6.5583   29.2300   -8.2375 C.ar        1 K26      -0.0493
     32 CD1        -5.3346   29.2967   -7.5317 C.ar        1 K26      -0.0685
     33 CE1        -4.1077   29.3453   -8.2174 C.ar        1 K26      -0.0398
     34 CZ         -4.0826   29.3291   -9.6260 C.ar        1 K26       0.0805
     35 OH         -2.9090   29.3508  -10.3062 O.3         1 K26      -0.3376
     36 CE2        -5.2941   29.3063  -10.3398 C.ar        1 K26      -0.0398
     37 CD2        -6.5209   29.2607   -9.6523 C.ar        1 K26      -0.0685
     38 H1        -10.8636   22.3281   -9.8930 H           1 K26       0.0530
     39 H2        -12.1479   20.9367  -11.3857 H           1 K26       0.0525
     40 H3        -14.7302   20.2722  -11.4737 H           1 K26       0.2458
     41 H4        -15.6159   23.1445  -10.4802 H           1 K26       0.0525
     42 H5        -14.3463   24.5324   -8.9767 H           1 K26       0.0530
     43 H6        -11.0959   23.7763   -7.7153 H           1 K26       0.0442
     44 H7        -12.3546   24.9891   -7.7081 H           1 K26       0.0442
     45 H8        -10.0210   24.8204   -9.6770 H           1 K26       0.0771
     46 H9        -10.2993   26.0561   -7.1750 H           1 K26       0.1870
     47 H10        -9.2512   27.9597   -6.4927 H           1 K26       0.0821
     48 H11        -7.9055   26.7381   -5.4593 H           1 K26       0.1885
     49 H12        -4.7328   25.3066   -6.1763 H           1 K26       0.0803
     50 H13        -5.7817   23.4586   -6.5306 H           1 K26       0.0345
     51 H14        -6.0991   22.0957   -4.5570 H           1 K26       0.0235
     52 H15        -6.3795   23.5317   -3.5498 H           1 K26       0.0235
     53 H16        -4.7916   23.2564   -4.2972 H           1 K26       0.0235
     54 H17        -7.8694   22.6595   -6.4826 H           1 K26       0.0267
     55 H18        -8.0880   24.3410   -6.9256 H           1 K26       0.0267
     56 H19        -9.8594   23.5210   -5.4246 H           1 K26       0.0230
     57 H20        -8.9504   24.8482   -4.6491 H           1 K26       0.0230
     58 H21        -8.6693   23.1503   -4.1638 H           1 K26       0.0230
     59 H22        -4.3660   26.0062   -4.3255 H           1 K26       0.1883
     60 H23        -6.0143   27.1940   -1.4803 H           1 K26       0.0467
     61 H24        -4.7353   27.7409   -2.5852 H           1 K26       0.0467
     62 H25        -4.6626   26.1055   -1.8692 H           1 K26       0.0467
     63 H26        -7.7280   29.7064   -6.5556 H           1 K26       0.0453
     64 H27        -8.6245   29.7047   -8.0506 H           1 K26       0.0453
     65 H28        -5.3338   29.3101   -6.5112 H           1 K26       0.0530
     66 H29        -3.2327   29.3818   -7.6883 H           1 K26       0.0525
     67 H30        -2.3002   28.7416   -9.8283 H           1 K26       0.2458
     68 H31        -5.2860   29.3091  -11.3601 H           1 K26       0.0525
     69 H32        -7.3934   29.2443  -10.1920 H           1 K26       0.0530
@<TRIPOS>BOND
     1     1     2  ar
     2     1     7  ar
     3     2     3  ar
     4     3     4   1
     5     3     5  ar
     6     5     6  ar
     7     6     7  ar
     8     7     8   1
     9     8     9   1
    10     9    10   1
    11     9    14   1
    12    10    11  ar
    13    10    12  ar
    14    10    13  ar
    15    14    15  am
    16    15    16   2
    17    15    17   1
    18    17    18   1
    19    17    30   1
    20    18    19  am
    21    19    20   2
    22    19    21   1
    23    21    22   1
    24    21    26   1
    25    22    23   1
    26    22    24   1
    27    24    25   1
    28    26    27  am
    29    27    28   1
    30    27    29   2
    31    30    31   1
    32    31    32  ar
    33    31    37  ar
    34    32    33  ar
    35    33    34  ar
    36    34    35   1
    37    34    36  ar
    38    36    37  ar
    39     1    38   1
    40     2    39   1
    41     4    40   1
    42     5    41   1
    43     6    42   1
    44     8    43   1
    45     8    44   1
    46     9    45   1
    47    14    46   1
    48    17    47   1
    49    18    48   1
    50    21    49   1
    51    22    50   1
    52    23    51   1
    53    23    52   1
    54    23    53   1
    55    24    54   1
    56    24    55   1
    57    25    56   1
    58    25    57   1
    59    25    58   1
    60    26    59   1
    61    28    60   1
    62    28    61   1
    63    28    62   1
    64    30    63   1
    65    30    64   1
    66    32    65   1
    67    33    66   1
    68    35    67   1
    69    36    68   1
    70    37    69   1
@<TRIPOS>SUBSTRUCTURE
     1  K26      1

