@<TRIPOS>MOLECULE
2xhm_ligand_012
    69    70
SMALL
GAST_HUCK
****
This file was generated by PARSER (from files_GN.cpp)

@<TRIPOS>ATOM
      1 CAR        -4.7256   26.1146   -7.0801 C.ar        1 K26      -0.0686
      2 CAN        -3.5476   26.3340   -6.3448 C.ar        1 K26      -0.0398
      3 CBD        -3.3796   25.7392   -5.0830 C.ar        1 K26       0.0805
      4 OAI        -2.2548   26.0075   -4.3712 O.3         1 K26      -0.3376
      5 CAO        -4.3898   24.9039   -4.5727 C.ar        1 K26      -0.0398
      6 CAS        -5.5549   24.6644   -5.3231 C.ar        1 K26      -0.0686
      7 CBF        -5.7464   25.2621   -6.5936 C.ar        1 K26      -0.0501
      8 CAV        -7.0311   25.0036   -7.3117 C.3         1 K26       0.0145
      9 CBI        -7.2459   25.4943   -8.7845 C.3         1 K26       0.1207
     10 PBK        -6.3782   24.6587   -9.9483 P.3         1 K26       0.0863
     11 OAJ        -7.1536   24.3239  -11.1249 O.co2       1 K26      -0.5606
     12 OAK        -5.2613   25.4250  -10.4498 O.co2       1 K26      -0.5606
     13 OAG        -5.8249   23.4122   -9.4689 O.co2       1 K26      -0.5606
     14 NAY        -8.6455   25.3580   -9.0931 N.am        1 K26      -0.2653
     15 C          -9.6174   26.2518   -8.9250 C.2         1 K26       0.2049
     16 O          -9.3817   27.3451   -8.4258 O.2         1 K26      -0.3943
     17 CA        -10.9831   25.9348   -9.3531 C.3         1 K26       0.1389
     18 N         -11.0322   25.8549  -10.7903 N.am        1 K26      -0.2621
     19 CBB       -10.3949   25.0216  -11.6046 C.2         1 K26       0.2043
     20 OAF        -9.6974   24.1215  -11.1477 O.2         1 K26      -0.3944
     21 CBJ       -10.5773   25.1183  -13.0535 C.3         1 K26       0.1334
     22 CBG       -11.5466   23.9904  -13.5843 C.3         1 K26      -0.0037
     23 CAC       -13.0170   24.3171  -13.1752 C.3         1 K26      -0.0582
     24 CAT       -11.4549   23.7312  -15.1289 C.3         1 K26      -0.0491
     25 CAA       -10.5137   22.5657  -15.5284 C.3         1 K26      -0.0648
     26 NAX        -9.2602   25.0819  -13.6418 N.am        1 K26      -0.2656
     27 CAZ        -8.6558   26.0295  -14.3482 C.2         1 K26       0.1751
     28 CAB        -7.3192   25.7816  -14.8343 C.3         1 K26       0.0258
     29 OAD        -9.1890   27.1069  -14.5850 O.2         1 K26      -0.3972
     30 CB        -11.6187   24.7476   -8.5382 C.3         1 K26       0.0163
     31 CG        -12.4639   23.8006   -9.3223 C.ar        1 K26      -0.0493
     32 CD1       -11.8812   22.6648   -9.9329 C.ar        1 K26      -0.0685
     33 CE1       -12.6481   21.7886  -10.7208 C.ar        1 K26      -0.0398
     34 CZ        -14.0167   22.0360  -10.9214 C.ar        1 K26       0.0805
     35 OH        -14.7273   21.2444  -11.7609 O.3         1 K26      -0.3376
     36 CE2       -14.6207   23.1419  -10.2869 C.ar        1 K26      -0.0398
     37 CD2       -13.8498   24.0166   -9.4946 C.ar        1 K26      -0.0685
     38 H1         -4.8279   26.6067   -7.9656 H           1 K26       0.0530
     39 H2         -2.8246   26.9536   -6.7192 H           1 K26       0.0525
     40 H3         -2.4726   25.8305   -3.4313 H           1 K26       0.2458
     41 H4         -4.2782   24.4742   -3.6528 H           1 K26       0.0525
     42 H5         -6.2716   24.0485   -4.9275 H           1 K26       0.0530
     43 H6         -7.8104   25.4708   -6.7014 H           1 K26       0.0442
     44 H7         -7.2221   23.9241   -7.2883 H           1 K26       0.0442
     45 H8         -6.9609   26.5495   -8.8455 H           1 K26       0.0771
     46 H9         -8.9148   24.4961   -9.4426 H           1 K26       0.1870
     47 H10       -11.6134   26.8049   -9.1335 H           1 K26       0.0821
     48 H11       -11.6034   26.5094  -11.2212 H           1 K26       0.1885
     49 H12       -11.0421   26.0859  -13.2824 H           1 K26       0.0803
     50 H13       -11.3004   23.0447  -13.0860 H           1 K26       0.0345
     51 H14       -13.6704   23.4664  -13.3831 H           1 K26       0.0235
     52 H15       -13.3811   25.1837  -13.7324 H           1 K26       0.0235
     53 H16       -13.0899   24.5433  -12.1109 H           1 K26       0.0235
     54 H17       -11.1438   24.6463  -15.6426 H           1 K26       0.0267
     55 H18       -12.4403   23.4688  -15.5214 H           1 K26       0.0267
     56 H19       -10.5407   22.4251  -16.6100 H           1 K26       0.0230
     57 H20       -10.8433   21.6407  -15.0493 H           1 K26       0.0230
     58 H21        -9.4861   22.7698  -15.2320 H           1 K26       0.0230
     59 H22        -8.7566   24.2641  -13.4964 H           1 K26       0.1883
     60 H23        -6.9338   26.6377  -15.3921 H           1 K26       0.0467
     61 H24        -7.3247   24.9149  -15.4980 H           1 K26       0.0467
     62 H25        -6.6491   25.5869  -13.9940 H           1 K26       0.0467
     63 H26       -12.2255   25.1592   -7.7256 H           1 K26       0.0453
     64 H27       -10.8374   24.1689   -8.0338 H           1 K26       0.0453
     65 H28       -10.8802   22.4844   -9.8451 H           1 K26       0.0530
     66 H29       -12.1958   20.9891  -11.1740 H           1 K26       0.0525
     67 H30       -14.6665   20.3493  -11.3626 H           1 K26       0.2458
     68 H31       -15.6184   23.3245  -10.4211 H           1 K26       0.0525
     69 H32       -14.3021   24.8235   -9.0549 H           1 K26       0.0530
@<TRIPOS>BOND
     1     1     2  ar
     2     1     7  ar
     3     2     3  ar
     4     3     4   1
     5     3     5  ar
     6     5     6  ar
     7     6     7  ar
     8     7     8   1
     9     8     9   1
    10     9    10   1
    11     9    14   1
    12    10    11  ar
    13    10    12  ar
    14    10    13  ar
    15    14    15  am
    16    15    16   2
    17    15    17   1
    18    17    18   1
    19    17    30   1
    20    18    19  am
    21    19    20   2
    22    19    21   1
    23    21    22   1
    24    21    26   1
    25    22    23   1
    26    22    24   1
    27    24    25   1
    28    26    27  am
    29    27    28   1
    30    27    29   2
    31    30    31   1
    32    31    32  ar
    33    31    37  ar
    34    32    33  ar
    35    33    34  ar
    36    34    35   1
    37    34    36  ar
    38    36    37  ar
    39     1    38   1
    40     2    39   1
    41     4    40   1
    42     5    41   1
    43     6    42   1
    44     8    43   1
    45     8    44   1
    46     9    45   1
    47    14    46   1
    48    17    47   1
    49    18    48   1
    50    21    49   1
    51    22    50   1
    52    23    51   1
    53    23    52   1
    54    23    53   1
    55    24    54   1
    56    24    55   1
    57    25    56   1
    58    25    57   1
    59    25    58   1
    60    26    59   1
    61    28    60   1
    62    28    61   1
    63    28    62   1
    64    30    63   1
    65    30    64   1
    66    32    65   1
    67    33    66   1
    68    35    67   1
    69    36    68   1
    70    37    69   1
@<TRIPOS>SUBSTRUCTURE
     1  K26      1

