@<TRIPOS>MOLECULE
2xhm_ligand_013
    69    70
SMALL
GAST_HUCK
****
This file was generated by PARSER (from files_GN.cpp)

@<TRIPOS>ATOM
      1 CAR        -6.1980   26.2593   -4.9846 C.ar        1 K26      -0.0686
      2 CAN        -5.7718   25.0454   -4.4190 C.ar        1 K26      -0.0398
      3 CBD        -6.4993   23.8617   -4.6587 C.ar        1 K26       0.0805
      4 OAI        -6.1048   22.6793   -4.1363 O.3         1 K26      -0.3376
      5 CAO        -7.6667   23.9092   -5.4356 C.ar        1 K26      -0.0398
      6 CAS        -8.0960   25.1279   -5.9925 C.ar        1 K26      -0.0686
      7 CBF        -7.3522   26.3175   -5.8056 C.ar        1 K26      -0.0501
      8 CAV        -7.7592   27.6044   -6.4591 C.3         1 K26       0.0145
      9 CBI        -7.7921   27.6255   -8.0228 C.3         1 K26       0.1207
     10 PBK        -6.4154   26.9900   -8.7352 P.3         1 K26       0.0863
     11 OAJ        -5.2114   27.1543   -7.9477 O.co2       1 K26      -0.5606
     12 OAK        -6.5760   25.5706   -8.9713 O.co2       1 K26      -0.5606
     13 OAG        -6.1391   27.6053  -10.0156 O.co2       1 K26      -0.5606
     14 NAY        -9.0024   27.0022   -8.4898 N.am        1 K26      -0.2653
     15 C          -9.4504   26.8896   -9.7393 C.2         1 K26       0.2049
     16 O          -8.8122   27.4162  -10.6517 O.2         1 K26      -0.3943
     17 CA        -10.6965   26.1665  -10.0258 C.3         1 K26       0.1389
     18 N         -10.8541   25.9390  -11.4397 N.am        1 K26      -0.2621
     19 CBB       -10.0192   25.2682  -12.2375 C.2         1 K26       0.2043
     20 OAF        -9.0162   24.7297  -11.7766 O.2         1 K26      -0.3944
     21 CBJ       -10.3136   25.1310  -13.6549 C.3         1 K26       0.1334
     22 CBG       -11.1821   23.8573  -13.9644 C.3         1 K26      -0.0037
     23 CAC       -12.6200   24.0353  -13.3888 C.3         1 K26      -0.0582
     24 CAT       -11.2469   23.4912  -15.4955 C.3         1 K26      -0.0491
     25 CAA       -10.2599   22.3741  -15.9175 C.3         1 K26      -0.0648
     26 NAX        -9.0592   25.1570  -14.3713 N.am        1 K26      -0.2656
     27 CAZ        -8.5669   26.1604  -15.0838 C.2         1 K26       0.1751
     28 CAB        -7.2942   25.9864  -15.7439 C.3         1 K26       0.0258
     29 OAD        -9.1474   27.2337  -15.1853 O.2         1 K26      -0.3972
     30 CB        -10.8888   24.8639   -9.1650 C.3         1 K26       0.0163
     31 CG        -11.8543   23.8743   -9.7246 C.ar        1 K26      -0.0493
     32 CD1       -13.2416   24.1144   -9.6446 C.ar        1 K26      -0.0685
     33 CE1       -14.1557   23.2443  -10.2704 C.ar        1 K26      -0.0398
     34 CZ        -13.6904   22.1182  -10.9797 C.ar        1 K26       0.0805
     35 OH        -14.5543   21.3468  -11.6847 O.3         1 K26      -0.3376
     36 CE2       -12.3111   21.8379  -11.0076 C.ar        1 K26      -0.0398
     37 CD2       -11.3999   22.7029  -10.3742 C.ar        1 K26      -0.0685
     38 H1         -5.6517   27.1044   -4.8012 H           1 K26       0.0530
     39 H2         -4.9342   25.0233   -3.8321 H           1 K26       0.0525
     40 H3         -5.1318   22.6374   -4.2549 H           1 K26       0.2458
     41 H4         -8.2093   23.0563   -5.6020 H           1 K26       0.0525
     42 H5         -8.9575   25.1292   -6.5398 H           1 K26       0.0530
     43 H6         -7.0858   28.4047   -6.1399 H           1 K26       0.0442
     44 H7         -8.7495   27.8787   -6.0806 H           1 K26       0.0442
     45 H8         -7.8567   28.6776   -8.3141 H           1 K26       0.0771
     46 H9         -9.5840   26.6268   -7.8087 H           1 K26       0.1870
     47 H10       -11.5005   26.8541   -9.7509 H           1 K26       0.0821
     48 H11       -11.6387   26.3231  -11.8613 H           1 K26       0.1885
     49 H12       -10.9080   25.9937  -13.9697 H           1 K26       0.0803
     50 H13       -10.7554   22.9999  -13.4361 H           1 K26       0.0345
     51 H14       -13.2067   23.1253  -13.5121 H           1 K26       0.0235
     52 H15       -13.1355   24.8519  -13.8927 H           1 K26       0.0235
     53 H16       -12.5914   24.2589  -12.3237 H           1 K26       0.0235
     54 H17       -11.0538   24.3779  -16.1039 H           1 K26       0.0267
     55 H18       -12.2445   23.1407  -15.7699 H           1 K26       0.0267
     56 H19       -10.3478   22.1934  -16.9909 H           1 K26       0.0230
     57 H20       -10.4891   21.4439  -15.3915 H           1 K26       0.0230
     58 H21        -9.2303   22.6571  -15.7011 H           1 K26       0.0230
     59 H22        -8.5066   24.3617  -14.2900 H           1 K26       0.1883
     60 H23        -6.9926   26.8977  -16.2628 H           1 K26       0.0467
     61 H24        -7.3700   25.1804  -16.4745 H           1 K26       0.0467
     62 H25        -6.5283   25.7348  -15.0099 H           1 K26       0.0467
     63 H26       -11.2468   25.1451   -8.1689 H           1 K26       0.0453
     64 H27        -9.9079   24.3958   -9.0153 H           1 K26       0.0453
     65 H28       -13.5990   24.9452   -9.1662 H           1 K26       0.0530
     66 H29       -15.1556   23.4494  -10.2352 H           1 K26       0.0525
     67 H30       -14.5195   20.4701  -11.2424 H           1 K26       0.2458
     68 H31       -11.9679   21.0129  -11.5059 H           1 K26       0.0525
     69 H32       -10.4000   22.4871  -10.4261 H           1 K26       0.0530
@<TRIPOS>BOND
     1     1     2  ar
     2     1     7  ar
     3     2     3  ar
     4     3     4   1
     5     3     5  ar
     6     5     6  ar
     7     6     7  ar
     8     7     8   1
     9     8     9   1
    10     9    10   1
    11     9    14   1
    12    10    11  ar
    13    10    12  ar
    14    10    13  ar
    15    14    15  am
    16    15    16   2
    17    15    17   1
    18    17    18   1
    19    17    30   1
    20    18    19  am
    21    19    20   2
    22    19    21   1
    23    21    22   1
    24    21    26   1
    25    22    23   1
    26    22    24   1
    27    24    25   1
    28    26    27  am
    29    27    28   1
    30    27    29   2
    31    30    31   1
    32    31    32  ar
    33    31    37  ar
    34    32    33  ar
    35    33    34  ar
    36    34    35   1
    37    34    36  ar
    38    36    37  ar
    39     1    38   1
    40     2    39   1
    41     4    40   1
    42     5    41   1
    43     6    42   1
    44     8    43   1
    45     8    44   1
    46     9    45   1
    47    14    46   1
    48    17    47   1
    49    18    48   1
    50    21    49   1
    51    22    50   1
    52    23    51   1
    53    23    52   1
    54    23    53   1
    55    24    54   1
    56    24    55   1
    57    25    56   1
    58    25    57   1
    59    25    58   1
    60    26    59   1
    61    28    60   1
    62    28    61   1
    63    28    62   1
    64    30    63   1
    65    30    64   1
    66    32    65   1
    67    33    66   1
    68    35    67   1
    69    36    68   1
    70    37    69   1
@<TRIPOS>SUBSTRUCTURE
     1  K26      1

