@<TRIPOS>MOLECULE
2xhm_ligand_027
    69    70
SMALL
GAST_HUCK
****
This file was generated by PARSER (from files_GN.cpp)

@<TRIPOS>ATOM
      1 CAR       -10.2810   23.9779  -15.1097 C.ar        1 K26      -0.0686
      2 CAN       -10.5898   22.7123  -14.5804 C.ar        1 K26      -0.0398
      3 CBD        -9.5506   21.8047  -14.2616 C.ar        1 K26       0.0805
      4 OAI        -9.8645   20.5896  -13.7300 O.3         1 K26      -0.3376
      5 CAO        -8.2107   22.1771  -14.4873 C.ar        1 K26      -0.0398
      6 CAS        -7.9080   23.4319  -15.0374 C.ar        1 K26      -0.0686
      7 CBF        -8.9378   24.3515  -15.3543 C.ar        1 K26      -0.0501
      8 CAV        -8.5954   25.6980  -15.8983 C.3         1 K26       0.0145
      9 CBI        -7.5990   26.5152  -14.9998 C.3         1 K26       0.1207
     10 PBK        -7.4326   28.1184  -15.4597 P.3         1 K26       0.0863
     11 OAJ        -6.5738   28.8351  -14.5483 O.co2       1 K26      -0.5606
     12 OAK        -6.8672   28.2230  -16.7857 O.co2       1 K26      -0.5606
     13 OAG        -8.7089   28.8024  -15.5031 O.co2       1 K26      -0.5606
     14 NAY        -7.8568   26.3370  -13.5927 N.am        1 K26      -0.2653
     15 C          -8.9260   26.7210  -12.8964 C.2         1 K26       0.2049
     16 O          -9.7064   27.5060  -13.4280 O.2         1 K26      -0.3943
     17 CA         -9.1895   26.3440  -11.5067 C.3         1 K26       0.1389
     18 N         -10.3649   25.5050  -11.3537 N.am        1 K26      -0.2621
     19 CBB       -11.5883   25.7109  -11.8596 C.2         1 K26       0.2043
     20 OAF       -11.7452   26.5812  -12.7314 O.2         1 K26      -0.3944
     21 CBJ       -12.8000   25.0378  -11.4146 C.3         1 K26       0.1334
     22 CBG       -13.3775   25.7024  -10.1077 C.3         1 K26      -0.0037
     23 CAC       -14.4075   24.7872   -9.3890 C.3         1 K26      -0.0582
     24 CAT       -12.3420   26.2986   -9.0938 C.3         1 K26      -0.0491
     25 CAA       -11.6772   25.2994   -8.1249 C.3         1 K26      -0.0648
     26 NAX       -12.6320   23.6134  -11.3185 N.am        1 K26      -0.2656
     27 CAZ       -13.4824   22.6871  -11.7626 C.2         1 K26       0.1751
     28 CAB       -13.1477   21.2914  -11.6323 C.3         1 K26       0.0258
     29 OAD       -14.5771   22.9819  -12.2334 O.2         1 K26      -0.3972
     30 CB         -7.9751   25.6238  -10.8161 C.3         1 K26       0.0163
     31 CG         -8.0580   25.4047   -9.3504 C.ar        1 K26      -0.0493
     32 CD1        -7.8778   24.1165   -8.7805 C.ar        1 K26      -0.0685
     33 CE1        -7.8155   23.9402   -7.3899 C.ar        1 K26      -0.0398
     34 CZ         -7.9406   25.0500   -6.5273 C.ar        1 K26       0.0805
     35 OH         -7.8562   24.8584   -5.1816 O.3         1 K26      -0.3376
     36 CE2        -8.1418   26.3299   -7.0743 C.ar        1 K26      -0.0398
     37 CD2        -8.2028   26.5061   -8.4699 C.ar        1 K26      -0.0685
     38 H1        -11.0472   24.6214  -15.3129 H           1 K26       0.0530
     39 H2        -11.5638   22.4418  -14.4273 H           1 K26       0.0525
     40 H3         -9.2798   19.9436  -14.1906 H           1 K26       0.2458
     41 H4         -7.4550   21.5346  -14.2477 H           1 K26       0.0525
     42 H5         -6.9332   23.6730  -15.2003 H           1 K26       0.0530
     43 H6         -9.5112   26.2858  -16.0474 H           1 K26       0.0442
     44 H7         -8.1521   25.5641  -16.8897 H           1 K26       0.0442
     45 H8         -6.6092   26.0706  -15.1513 H           1 K26       0.0771
     46 H9         -7.2173   25.7869  -13.1173 H           1 K26       0.1870
     47 H10        -9.3675   27.2724  -10.9543 H           1 K26       0.0821
     48 H11       -10.2793   24.7969  -10.6864 H           1 K26       0.1885
     49 H12       -13.5534   25.2322  -12.1850 H           1 K26       0.0803
     50 H13       -13.9590   26.5765  -10.4540 H           1 K26       0.0345
     51 H14       -14.8180   25.2965   -8.5121 H           1 K26       0.0235
     52 H15       -13.9326   23.8626   -9.0688 H           1 K26       0.0235
     53 H16       -15.2384   24.5388  -10.0522 H           1 K26       0.0235
     54 H17       -12.8507   27.0679   -8.4961 H           1 K26       0.0267
     55 H18       -11.5536   26.8211   -9.6453 H           1 K26       0.0267
     56 H19       -10.9739   25.8400   -7.4909 H           1 K26       0.0230
     57 H20       -11.1230   24.5372   -8.6672 H           1 K26       0.0230
     58 H21       -12.4166   24.8132   -7.4844 H           1 K26       0.0230
     59 H22       -11.8240   23.2914  -10.8878 H           1 K26       0.1883
     60 H23       -13.9602   20.6540  -12.0007 H           1 K26       0.0467
     61 H24       -12.9629   21.0429  -10.5844 H           1 K26       0.0467
     62 H25       -12.2480   21.0739  -12.2100 H           1 K26       0.0467
     63 H26        -7.0702   26.2162  -10.9887 H           1 K26       0.0453
     64 H27        -7.8337   24.6687  -11.3323 H           1 K26       0.0453
     65 H28        -7.7645   23.3019   -9.3846 H           1 K26       0.0530
     66 H29        -7.6525   23.0080   -6.9996 H           1 K26       0.0525
     67 H30        -8.0480   25.7278   -4.7584 H           1 K26       0.2458
     68 H31        -8.2182   27.1435   -6.4558 H           1 K26       0.0525
     69 H32        -8.3115   27.4503   -8.8383 H           1 K26       0.0530
@<TRIPOS>BOND
     1     1     2  ar
     2     1     7  ar
     3     2     3  ar
     4     3     4   1
     5     3     5  ar
     6     5     6  ar
     7     6     7  ar
     8     7     8   1
     9     8     9   1
    10     9    10   1
    11     9    14   1
    12    10    11  ar
    13    10    12  ar
    14    10    13  ar
    15    14    15  am
    16    15    16   2
    17    15    17   1
    18    17    18   1
    19    17    30   1
    20    18    19  am
    21    19    20   2
    22    19    21   1
    23    21    22   1
    24    21    26   1
    25    22    23   1
    26    22    24   1
    27    24    25   1
    28    26    27  am
    29    27    28   1
    30    27    29   2
    31    30    31   1
    32    31    32  ar
    33    31    37  ar
    34    32    33  ar
    35    33    34  ar
    36    34    35   1
    37    34    36  ar
    38    36    37  ar
    39     1    38   1
    40     2    39   1
    41     4    40   1
    42     5    41   1
    43     6    42   1
    44     8    43   1
    45     8    44   1
    46     9    45   1
    47    14    46   1
    48    17    47   1
    49    18    48   1
    50    21    49   1
    51    22    50   1
    52    23    51   1
    53    23    52   1
    54    23    53   1
    55    24    54   1
    56    24    55   1
    57    25    56   1
    58    25    57   1
    59    25    58   1
    60    26    59   1
    61    28    60   1
    62    28    61   1
    63    28    62   1
    64    30    63   1
    65    30    64   1
    66    32    65   1
    67    33    66   1
    68    35    67   1
    69    36    68   1
    70    37    69   1
@<TRIPOS>SUBSTRUCTURE
     1  K26      1

