@<TRIPOS>MOLECULE
2xhm_ligand_014
    69    70
SMALL
GAST_HUCK
****
This file was generated by PARSER (from files_GN.cpp)

@<TRIPOS>ATOM
      1 CAR       -19.6409   20.4652   -8.4271 C.ar        1 K26      -0.0686
      2 CAN       -20.8476   19.7876   -8.6781 C.ar        1 K26      -0.0398
      3 CBD       -20.9000   18.7760   -9.6564 C.ar        1 K26       0.0805
      4 OAI       -22.0821   18.1488   -9.9009 O.3         1 K26      -0.3376
      5 CAO       -19.7321   18.4355  -10.3656 C.ar        1 K26      -0.0398
      6 CAS       -18.5285   19.1159  -10.1151 C.ar        1 K26      -0.0686
      7 CBF       -18.4657   20.1467   -9.1477 C.ar        1 K26      -0.0501
      8 CAV       -17.1919   20.8875   -8.9057 C.3         1 K26       0.0145
      9 CBI       -16.4955   21.4740  -10.1749 C.3         1 K26       0.1207
     10 PBK       -17.4467   22.5059  -11.0753 P.3         1 K26       0.0863
     11 OAJ       -18.1510   23.4690  -10.2623 O.co2       1 K26      -0.5606
     12 OAK       -16.6066   23.2061  -12.0125 O.co2       1 K26      -0.5606
     13 OAG       -18.3980   21.7650  -11.8678 O.co2       1 K26      -0.5606
     14 NAY       -15.3019   22.1806   -9.7737 N.am        1 K26      -0.2653
     15 C         -14.2447   22.4577  -10.5321 C.2         1 K26       0.2049
     16 O         -14.2480   22.1356  -11.7169 O.2         1 K26      -0.3943
     17 CA        -13.1174   23.2108   -9.9723 C.3         1 K26       0.1389
     18 N         -11.8714   23.0102  -10.6860 N.am        1 K26      -0.2621
     19 CBB       -11.5372   23.4685  -11.8940 C.2         1 K26       0.2043
     20 OAF       -12.3470   24.1464  -12.5100 O.2         1 K26      -0.3944
     21 CBJ       -10.1977   23.3105  -12.4656 C.3         1 K26       0.1334
     22 CBG       -10.1942   22.6119  -13.8847 C.3         1 K26      -0.0037
     23 CAC       -10.3574   21.0602  -13.7861 C.3         1 K26      -0.0582
     24 CAT       -11.2062   23.1732  -14.9495 C.3         1 K26      -0.0491
     25 CAA       -11.0522   24.6741  -15.2916 C.3         1 K26      -0.0648
     26 NAX        -9.2477   22.6234  -11.6258 N.am        1 K26      -0.2656
     27 CAZ        -8.7898   22.9724  -10.4289 C.2         1 K26       0.1751
     28 CAB        -7.8308   22.1072   -9.7740 C.3         1 K26       0.0258
     29 OAD        -9.1506   24.0013   -9.8784 O.2         1 K26      -0.3972
     30 CB        -13.4745   24.7255   -9.7500 C.3         1 K26       0.0163
     31 CG        -12.2774   25.6173   -9.6449 C.ar        1 K26      -0.0493
     32 CD1       -11.8210   26.3484  -10.7683 C.ar        1 K26      -0.0685
     33 CE1       -10.6187   27.0769  -10.7108 C.ar        1 K26      -0.0398
     34 CZ         -9.8792   27.1296   -9.5116 C.ar        1 K26       0.0805
     35 OH         -8.7238   27.8405   -9.4264 O.3         1 K26      -0.3376
     36 CE2       -10.3477   26.4352   -8.3775 C.ar        1 K26      -0.0398
     37 CD2       -11.5338   25.6821   -8.4440 C.ar        1 K26      -0.0685
     38 H1        -19.6336   21.2011   -7.7198 H           1 K26       0.0530
     39 H2        -21.6895   20.0288   -8.1453 H           1 K26       0.0525
     40 H3        -21.8603   17.1979  -10.0570 H           1 K26       0.2458
     41 H4        -19.7645   17.6985  -11.0718 H           1 K26       0.0525
     42 H5        -17.6951   18.8538  -10.6422 H           1 K26       0.0530
     43 H6        -16.4881   20.2027   -8.4203 H           1 K26       0.0442
     44 H7        -17.3546   21.7095   -8.2002 H           1 K26       0.0442
     45 H8        -16.2349   20.6375  -10.8288 H           1 K26       0.0771
     46 H9        -15.2930   22.5494   -8.8709 H           1 K26       0.1870
     47 H10       -12.9248   22.7880   -8.9830 H           1 K26       0.0821
     48 H11       -11.1830   22.5281  -10.1935 H           1 K26       0.1885
     49 H12        -9.7877   24.3149  -12.6027 H           1 K26       0.0803
     50 H13        -9.1862   22.7856  -14.3139 H           1 K26       0.0345
     51 H14       -10.3410   20.6191  -14.7842 H           1 K26       0.0235
     52 H15       -11.2979   20.8179  -13.2990 H           1 K26       0.0235
     53 H16        -9.5390   20.6128  -13.2210 H           1 K26       0.0235
     54 H17       -12.2230   22.9907  -14.6240 H           1 K26       0.0267
     55 H18       -11.0660   22.6171  -15.8831 H           1 K26       0.0267
     56 H19       -11.7965   24.9468  -16.0469 H           1 K26       0.0230
     57 H20       -10.0514   24.8856  -15.6956 H           1 K26       0.0230
     58 H21       -11.2223   25.2916  -14.4064 H           1 K26       0.0230
     59 H22        -8.8423   21.8156  -11.9864 H           1 K26       0.1883
     60 H23        -7.6084   22.4428   -8.7525 H           1 K26       0.0467
     61 H24        -6.8898   22.0780  -10.3355 H           1 K26       0.0467
     62 H25        -8.2308   21.0881   -9.7194 H           1 K26       0.0467
     63 H26       -14.0670   24.8429   -8.8358 H           1 K26       0.0453
     64 H27       -14.1071   25.0642  -10.5770 H           1 K26       0.0453
     65 H28       -12.3441   26.3191  -11.6532 H           1 K26       0.0530
     66 H29       -10.2800   27.5685  -11.5356 H           1 K26       0.0525
     67 H30        -8.2327   27.6525  -10.2567 H           1 K26       0.2458
     68 H31        -9.8047   26.4583   -7.5072 H           1 K26       0.0525
     69 H32       -11.8369   25.1657   -7.6184 H           1 K26       0.0530
@<TRIPOS>BOND
     1     1     2  ar
     2     1     7  ar
     3     2     3  ar
     4     3     4   1
     5     3     5  ar
     6     5     6  ar
     7     6     7  ar
     8     7     8   1
     9     8     9   1
    10     9    10   1
    11     9    14   1
    12    10    11  ar
    13    10    12  ar
    14    10    13  ar
    15    14    15  am
    16    15    16   2
    17    15    17   1
    18    17    18   1
    19    17    30   1
    20    18    19  am
    21    19    20   2
    22    19    21   1
    23    21    22   1
    24    21    26   1
    25    22    23   1
    26    22    24   1
    27    24    25   1
    28    26    27  am
    29    27    28   1
    30    27    29   2
    31    30    31   1
    32    31    32  ar
    33    31    37  ar
    34    32    33  ar
    35    33    34  ar
    36    34    35   1
    37    34    36  ar
    38    36    37  ar
    39     1    38   1
    40     2    39   1
    41     4    40   1
    42     5    41   1
    43     6    42   1
    44     8    43   1
    45     8    44   1
    46     9    45   1
    47    14    46   1
    48    17    47   1
    49    18    48   1
    50    21    49   1
    51    22    50   1
    52    23    51   1
    53    23    52   1
    54    23    53   1
    55    24    54   1
    56    24    55   1
    57    25    56   1
    58    25    57   1
    59    25    58   1
    60    26    59   1
    61    28    60   1
    62    28    61   1
    63    28    62   1
    64    30    63   1
    65    30    64   1
    66    32    65   1
    67    33    66   1
    68    35    67   1
    69    36    68   1
    70    37    69   1
@<TRIPOS>SUBSTRUCTURE
     1  K26      1

