@<TRIPOS>MOLECULE
2xhm_ligand_057
    69    70
SMALL
GAST_HUCK
****
This file was generated by PARSER (from files_GN.cpp)

@<TRIPOS>ATOM
      1 CAR       -19.3109   19.2288  -10.5794 C.ar        1 K26      -0.0686
      2 CAN       -20.4391   18.6994  -11.2155 C.ar        1 K26      -0.0398
      3 CBD       -21.0107   19.3709  -12.3099 C.ar        1 K26       0.0805
      4 OAI       -22.1060   18.8624  -12.9408 O.3         1 K26      -0.3376
      5 CAO       -20.4289   20.5733  -12.7614 C.ar        1 K26      -0.0398
      6 CAS       -19.2928   21.1007  -12.1277 C.ar        1 K26      -0.0686
      7 CBF       -18.7137   20.4456  -11.0075 C.ar        1 K26      -0.0501
      8 CAV       -17.4463   20.9155  -10.3464 C.3         1 K26       0.0145
      9 CBI       -17.1217   22.4515  -10.2877 C.3         1 K26       0.1207
     10 PBK       -18.2167   23.3368   -9.3766 P.3         1 K26       0.0863
     11 OAJ       -19.5193   23.3465   -9.9928 O.co2       1 K26      -0.5606
     12 OAK       -18.3686   22.8521   -8.0269 O.co2       1 K26      -0.5606
     13 OAG       -17.7984   24.7071   -9.3350 O.co2       1 K26      -0.5606
     14 NAY       -15.7881   22.6682   -9.7825 N.am        1 K26      -0.2653
     15 C         -14.6673   22.6250  -10.5111 C.2         1 K26       0.2049
     16 O         -14.7204   22.2409  -11.6761 O.2         1 K26      -0.3943
     17 CA        -13.4532   23.2830  -10.0045 C.3         1 K26       0.1389
     18 N         -12.2764   22.7627  -10.6940 N.am        1 K26      -0.2621
     19 CBB       -10.9875   23.0324  -10.4565 C.2         1 K26       0.2043
     20 OAF       -10.7199   23.7164   -9.4742 O.2         1 K26      -0.3944
     21 CBJ        -9.9412   22.4932  -11.3379 C.3         1 K26       0.1334
     22 CBG        -8.4475   22.9846  -11.1108 C.3         1 K26      -0.0037
     23 CAC        -8.2066   24.5247  -11.1714 C.3         1 K26      -0.0582
     24 CAT        -7.7054   22.3461   -9.8737 C.3         1 K26      -0.0491
     25 CAA        -7.7274   23.0889   -8.5136 C.3         1 K26      -0.0648
     26 NAX       -10.4469   22.4448  -12.6989 N.am        1 K26      -0.2656
     27 CAZ       -10.0227   22.9159  -13.8751 C.2         1 K26       0.1751
     28 CAB       -10.8152   22.6012  -15.0476 C.3         1 K26       0.0258
     29 OAD        -8.9924   23.5580  -14.0288 O.2         1 K26      -0.3972
     30 CB        -13.6343   24.8482  -10.0338 C.3         1 K26       0.0163
     31 CG        -12.6648   25.6022  -10.8870 C.ar        1 K26      -0.0493
     32 CD1       -12.6066   25.3450  -12.2818 C.ar        1 K26      -0.0685
     33 CE1       -11.5879   25.9144  -13.0624 C.ar        1 K26      -0.0398
     34 CZ        -10.6664   26.8115  -12.4922 C.ar        1 K26       0.0805
     35 OH         -9.6713   27.3231  -13.2631 O.3         1 K26      -0.3376
     36 CE2       -10.7854   27.1610  -11.1360 C.ar        1 K26      -0.0398
     37 CD2       -11.7858   26.5712  -10.3406 C.ar        1 K26      -0.0685
     38 H1        -18.8929   18.6971   -9.8101 H           1 K26       0.0530
     39 H2        -20.8465   17.8098  -10.8986 H           1 K26       0.0525
     40 H3        -21.9297   19.0403  -13.8862 H           1 K26       0.2458
     41 H4        -20.8513   21.0644  -13.5690 H           1 K26       0.0525
     42 H5        -18.8696   21.9583  -12.4996 H           1 K26       0.0530
     43 H6        -16.6376   20.4237  -10.8899 H           1 K26       0.0442
     44 H7        -17.4025   20.5250   -9.3273 H           1 K26       0.0442
     45 H8        -17.1764   22.8698  -11.2943 H           1 K26       0.0771
     46 H9        -15.7089   23.0504   -8.8868 H           1 K26       0.1870
     47 H10       -13.3530   22.9562   -8.9707 H           1 K26       0.0821
     48 H11       -12.4652   22.1966  -11.4498 H           1 K26       0.1885
     49 H12        -9.9220   21.4217  -11.0904 H           1 K26       0.0803
     50 H13        -7.8970   22.5803  -11.9761 H           1 K26       0.0345
     51 H14        -7.1329   24.7374  -11.1681 H           1 K26       0.0235
     52 H15        -8.6548   25.0440  -10.3285 H           1 K26       0.0235
     53 H16        -8.6203   24.9496  -12.0796 H           1 K26       0.0235
     54 H17        -6.6439   22.2405  -10.1346 H           1 K26       0.0267
     55 H18        -8.0734   21.3347   -9.7119 H           1 K26       0.0267
     56 H19        -7.2642   22.4691   -7.7474 H           1 K26       0.0230
     57 H20        -8.7325   23.3095   -8.1803 H           1 K26       0.0230
     58 H21        -7.1629   24.0252   -8.5732 H           1 K26       0.0230
     59 H22       -11.2751   21.9481  -12.7899 H           1 K26       0.1883
     60 H23       -10.4281   23.0947  -15.9384 H           1 K26       0.0467
     61 H24       -11.8496   22.9231  -14.8961 H           1 K26       0.0467
     62 H25       -10.7951   21.5252  -15.2087 H           1 K26       0.0467
     63 H26       -13.5471   25.2045   -9.0038 H           1 K26       0.0453
     64 H27       -14.6372   25.1339  -10.3587 H           1 K26       0.0453
     65 H28       -13.2455   24.6689  -12.7073 H           1 K26       0.0530
     66 H29       -11.5072   25.6578  -14.0510 H           1 K26       0.0525
     67 H30        -8.8804   27.3597  -12.6780 H           1 K26       0.2458
     68 H31       -10.1291   27.8190  -10.7231 H           1 K26       0.0525
     69 H32       -11.8397   26.8177   -9.3539 H           1 K26       0.0530
@<TRIPOS>BOND
     1     1     2  ar
     2     1     7  ar
     3     2     3  ar
     4     3     4   1
     5     3     5  ar
     6     5     6  ar
     7     6     7  ar
     8     7     8   1
     9     8     9   1
    10     9    10   1
    11     9    14   1
    12    10    11  ar
    13    10    12  ar
    14    10    13  ar
    15    14    15  am
    16    15    16   2
    17    15    17   1
    18    17    18   1
    19    17    30   1
    20    18    19  am
    21    19    20   2
    22    19    21   1
    23    21    22   1
    24    21    26   1
    25    22    23   1
    26    22    24   1
    27    24    25   1
    28    26    27  am
    29    27    28   1
    30    27    29   2
    31    30    31   1
    32    31    32  ar
    33    31    37  ar
    34    32    33  ar
    35    33    34  ar
    36    34    35   1
    37    34    36  ar
    38    36    37  ar
    39     1    38   1
    40     2    39   1
    41     4    40   1
    42     5    41   1
    43     6    42   1
    44     8    43   1
    45     8    44   1
    46     9    45   1
    47    14    46   1
    48    17    47   1
    49    18    48   1
    50    21    49   1
    51    22    50   1
    52    23    51   1
    53    23    52   1
    54    23    53   1
    55    24    54   1
    56    24    55   1
    57    25    56   1
    58    25    57   1
    59    25    58   1
    60    26    59   1
    61    28    60   1
    62    28    61   1
    63    28    62   1
    64    30    63   1
    65    30    64   1
    66    32    65   1
    67    33    66   1
    68    35    67   1
    69    36    68   1
    70    37    69   1
@<TRIPOS>SUBSTRUCTURE
     1  K26      1

