@<TRIPOS>MOLECULE
2xhm_ligand_048
    69    70
SMALL
GAST_HUCK
****
This file was generated by PARSER (from files_GN.cpp)

@<TRIPOS>ATOM
      1 CAR       -11.7721   23.4062  -14.4548 C.ar        1 K26      -0.0686
      2 CAN       -11.3711   23.8977  -15.7125 C.ar        1 K26      -0.0398
      3 CBD       -10.4415   23.1837  -16.4974 C.ar        1 K26       0.0805
      4 OAI       -10.0116   23.6650  -17.6911 O.3         1 K26      -0.3376
      5 CAO        -9.9225   21.9680  -16.0266 C.ar        1 K26      -0.0398
      6 CAS       -10.3288   21.4760  -14.7703 C.ar        1 K26      -0.0686
      7 CBF       -11.2423   22.1957  -13.9542 C.ar        1 K26      -0.0501
      8 CAV       -11.6471   21.6513  -12.6221 C.3         1 K26       0.0145
      9 CBI       -11.1252   22.3930  -11.3430 C.3         1 K26       0.1207
     10 PBK        -9.5179   22.8948  -11.3620 P.3         1 K26       0.0863
     11 OAJ        -9.3633   24.3155  -11.1700 O.co2       1 K26      -0.5606
     12 OAK        -8.7166   22.2575  -10.3404 O.co2       1 K26      -0.5606
     13 OAG        -8.8305   22.6302  -12.6030 O.co2       1 K26      -0.5606
     14 NAY       -12.0056   23.4734  -10.9815 N.am        1 K26      -0.2653
     15 C         -13.1974   23.3544  -10.3992 C.2         1 K26       0.2049
     16 O         -13.6832   22.2391  -10.2217 O.2         1 K26      -0.3943
     17 CA        -13.9889   24.5539  -10.1141 C.3         1 K26       0.1389
     18 N         -15.3271   24.2565   -9.6416 N.am        1 K26      -0.2621
     19 CBB       -16.3037   23.6188  -10.2824 C.2         1 K26       0.2043
     20 OAF       -16.1094   23.2052  -11.4190 O.2         1 K26      -0.3944
     21 CBJ       -17.6445   23.4921   -9.6902 C.3         1 K26       0.1334
     22 CBG       -18.1722   22.0238   -9.4217 C.3         1 K26      -0.0037
     23 CAC       -17.8495   20.9989  -10.5469 C.3         1 K26      -0.0582
     24 CAT       -17.8607   21.4587   -7.9967 C.3         1 K26      -0.0491
     25 CAA       -16.4337   20.9239   -7.7457 C.3         1 K26      -0.0648
     26 NAX       -18.5755   24.2055  -10.5343 N.am        1 K26      -0.2656
     27 CAZ       -19.6851   24.8310  -10.1567 C.2         1 K26       0.1751
     28 CAB       -20.5298   25.4117  -11.1752 C.3         1 K26       0.0258
     29 OAD       -20.0239   24.9192   -8.9812 O.2         1 K26      -0.3972
     30 CB        -13.3135   25.4949   -9.0595 C.3         1 K26       0.0163
     31 CG        -11.9617   26.0462   -9.3792 C.ar        1 K26      -0.0493
     32 CD1       -11.6974   26.6406  -10.6351 C.ar        1 K26      -0.0685
     33 CE1       -10.4293   27.1837  -10.9238 C.ar        1 K26      -0.0398
     34 CZ         -9.4111   27.1607   -9.9508 C.ar        1 K26       0.0805
     35 OH         -8.1731   27.6624  -10.2088 O.3         1 K26      -0.3376
     36 CE2        -9.6683   26.5935   -8.6897 C.ar        1 K26      -0.0398
     37 CD2       -10.9309   26.0399   -8.4082 C.ar        1 K26      -0.0685
     38 H1        -12.4423   23.9402  -13.9128 H           1 K26       0.0530
     39 H2        -11.7484   24.7916  -16.0612 H           1 K26       0.0525
     40 H3        -10.7762   24.1532  -18.0779 H           1 K26       0.2458
     41 H4         -9.2540   21.4431  -16.5857 H           1 K26       0.0525
     42 H5         -9.9389   20.5781  -14.4501 H           1 K26       0.0530
     43 H6        -11.3307   20.6056  -12.5414 H           1 K26       0.0442
     44 H7        -12.7370   21.6274  -12.5948 H           1 K26       0.0442
     45 H8        -11.1700   21.6643  -10.5272 H           1 K26       0.0771
     46 H9        -11.7078   24.3726  -11.2060 H           1 K26       0.1870
     47 H10       -14.0910   25.1191  -11.0460 H           1 K26       0.0821
     48 H11       -15.5384   24.5611   -8.7467 H           1 K26       0.1885
     49 H12       -17.6315   24.0169   -8.7250 H           1 K26       0.0803
     50 H13       -19.2690   22.0965   -9.4262 H           1 K26       0.0345
     51 H14       -18.3619   20.0533  -10.3594 H           1 K26       0.0235
     52 H15       -16.7795   20.8006  -10.6064 H           1 K26       0.0235
     53 H16       -18.1863   21.3799  -11.5146 H           1 K26       0.0235
     54 H17       -18.5569   20.6396   -7.7868 H           1 K26       0.0267
     55 H18       -18.0724   22.2369   -7.2559 H           1 K26       0.0267
     56 H19       -16.2896   20.7636   -6.6715 H           1 K26       0.0230
     57 H20       -15.6847   21.6356   -8.0953 H           1 K26       0.0230
     58 H21       -16.2916   19.9711   -8.2587 H           1 K26       0.0230
     59 H22       -18.4153   24.1533  -11.4888 H           1 K26       0.1883
     60 H23       -21.4435   25.8356  -10.7488 H           1 K26       0.0467
     61 H24       -20.8194   24.6475  -11.9044 H           1 K26       0.0467
     62 H25       -19.9862   26.2075  -11.6948 H           1 K26       0.0467
     63 H26       -13.2831   24.9592   -8.1030 H           1 K26       0.0453
     64 H27       -13.9663   26.3597   -8.9111 H           1 K26       0.0453
     65 H28       -12.4269   26.6859  -11.3493 H           1 K26       0.0530
     66 H29       -10.2505   27.6076  -11.8386 H           1 K26       0.0525
     67 H30        -8.3086   28.3974  -10.8468 H           1 K26       0.2458
     68 H31        -8.9347   26.5800   -7.9766 H           1 K26       0.0525
     69 H32       -11.0924   25.6433   -7.4823 H           1 K26       0.0530
@<TRIPOS>BOND
     1     1     2  ar
     2     1     7  ar
     3     2     3  ar
     4     3     4   1
     5     3     5  ar
     6     5     6  ar
     7     6     7  ar
     8     7     8   1
     9     8     9   1
    10     9    10   1
    11     9    14   1
    12    10    11  ar
    13    10    12  ar
    14    10    13  ar
    15    14    15  am
    16    15    16   2
    17    15    17   1
    18    17    18   1
    19    17    30   1
    20    18    19  am
    21    19    20   2
    22    19    21   1
    23    21    22   1
    24    21    26   1
    25    22    23   1
    26    22    24   1
    27    24    25   1
    28    26    27  am
    29    27    28   1
    30    27    29   2
    31    30    31   1
    32    31    32  ar
    33    31    37  ar
    34    32    33  ar
    35    33    34  ar
    36    34    35   1
    37    34    36  ar
    38    36    37  ar
    39     1    38   1
    40     2    39   1
    41     4    40   1
    42     5    41   1
    43     6    42   1
    44     8    43   1
    45     8    44   1
    46     9    45   1
    47    14    46   1
    48    17    47   1
    49    18    48   1
    50    21    49   1
    51    22    50   1
    52    23    51   1
    53    23    52   1
    54    23    53   1
    55    24    54   1
    56    24    55   1
    57    25    56   1
    58    25    57   1
    59    25    58   1
    60    26    59   1
    61    28    60   1
    62    28    61   1
    63    28    62   1
    64    30    63   1
    65    30    64   1
    66    32    65   1
    67    33    66   1
    68    35    67   1
    69    36    68   1
    70    37    69   1
@<TRIPOS>SUBSTRUCTURE
     1  K26      1

