@<TRIPOS>MOLECULE
2xhm_ligand_046
    69    70
SMALL
GAST_HUCK
****
This file was generated by PARSER (from files_GN.cpp)

@<TRIPOS>ATOM
      1 CAR       -20.6478   21.6150  -12.5935 C.ar        1 K26      -0.0686
      2 CAN       -20.6469   21.2641  -13.9595 C.ar        1 K26      -0.0398
      3 CBD       -20.7346   22.2653  -14.9485 C.ar        1 K26       0.0805
      4 OAI       -20.6356   21.9675  -16.2693 O.3         1 K26      -0.3376
      5 CAO       -20.8974   23.6068  -14.5645 C.ar        1 K26      -0.0398
      6 CAS       -20.9005   23.9551  -13.2042 C.ar        1 K26      -0.0686
      7 CBF       -20.7309   22.9707  -12.2005 C.ar        1 K26      -0.0501
      8 CAV       -20.6184   23.3856  -10.7767 C.3         1 K26       0.0145
      9 CBI       -19.2834   24.1562  -10.4564 C.3         1 K26       0.1207
     10 PBK       -19.4398   25.3534   -9.2934 P.3         1 K26       0.0863
     11 OAJ       -20.7964   25.6295   -8.8908 O.co2       1 K26      -0.5606
     12 OAK       -18.7233   25.1172   -8.0646 O.co2       1 K26      -0.5606
     13 OAG       -18.9678   26.6139   -9.8120 O.co2       1 K26      -0.5606
     14 NAY       -18.2341   23.2714  -10.0250 N.am        1 K26      -0.2653
     15 C         -17.5173   22.4250  -10.7562 C.2         1 K26       0.2049
     16 O         -17.6309   22.3965  -11.9781 O.2         1 K26      -0.3943
     17 CA        -16.5841   21.5097  -10.1072 C.3         1 K26       0.1389
     18 N         -15.3991   22.2386   -9.7316 N.am        1 K26      -0.2621
     19 CBB       -14.3524   22.5139  -10.5107 C.2         1 K26       0.2043
     20 OAF       -14.3695   22.1738  -11.6869 O.2         1 K26      -0.3944
     21 CBJ       -13.2808   23.3828   -9.9980 C.3         1 K26       0.1334
     22 CBG       -13.6005   24.9105  -10.2920 C.3         1 K26      -0.0037
     23 CAC       -13.2626   25.8327   -9.0835 C.3         1 K26      -0.0582
     24 CAT       -12.9726   25.5123  -11.5953 C.3         1 K26      -0.0491
     25 CAA       -12.9220   24.5873  -12.8355 C.3         1 K26      -0.0648
     26 NAX       -12.0012   22.9096  -10.4687 N.am        1 K26      -0.2656
     27 CAZ       -10.8153   23.5017  -10.3210 C.2         1 K26       0.1751
     28 CAB        -9.6559   22.9373  -10.9723 C.3         1 K26       0.0258
     29 OAD       -10.6846   24.5556   -9.6906 O.2         1 K26      -0.3972
     30 CB        -17.1723   20.7840   -8.8519 C.3         1 K26       0.0163
     31 CG        -18.4758   20.1016   -9.0951 C.ar        1 K26      -0.0493
     32 CD1       -18.5937   19.0949  -10.0817 C.ar        1 K26      -0.0685
     33 CE1       -19.8332   18.4760  -10.3320 C.ar        1 K26      -0.0398
     34 CZ        -20.9710   18.8564   -9.5984 C.ar        1 K26       0.0805
     35 OH        -22.1609   18.2582   -9.8416 O.3         1 K26      -0.3376
     36 CE2       -20.8628   19.8383   -8.5991 C.ar        1 K26      -0.0398
     37 CD2       -19.6264   20.4570   -8.3482 C.ar        1 K26      -0.0685
     38 H1        -20.5347   20.8780  -11.8961 H           1 K26       0.0530
     39 H2        -20.5517   20.2862  -14.2284 H           1 K26       0.0525
     40 H3        -20.0320   21.1948  -16.3297 H           1 K26       0.2458
     41 H4        -20.9872   24.3367  -15.2780 H           1 K26       0.0525
     42 H5        -20.9960   24.9410  -12.9464 H           1 K26       0.0530
     43 H6        -20.6968   22.5251  -10.1115 H           1 K26       0.0442
     44 H7        -21.5002   23.9986  -10.5835 H           1 K26       0.0442
     45 H8        -18.9361   24.6683  -11.3571 H           1 K26       0.0771
     46 H9        -18.0306   23.2637   -9.0735 H           1 K26       0.1870
     47 H10       -16.2952   20.7230  -10.8170 H           1 K26       0.0821
     48 H11       -15.3962   22.6140   -8.8371 H           1 K26       0.1885
     49 H12       -13.2618   23.2313   -8.9125 H           1 K26       0.0803
     50 H13       -14.6868   25.0111  -10.4026 H           1 K26       0.0345
     51 H14       -13.6154   26.8529   -9.2734 H           1 K26       0.0235
     52 H15       -12.1778   25.8730   -8.9183 H           1 K26       0.0235
     53 H16       -13.7530   25.4635   -8.1758 H           1 K26       0.0235
     54 H17       -11.9539   25.8586  -11.3890 H           1 K26       0.0267
     55 H18       -13.5561   26.3939  -11.8874 H           1 K26       0.0267
     56 H19       -12.5476   25.1531  -13.6983 H           1 K26       0.0230
     57 H20       -13.9200   24.2037  -13.0760 H           1 K26       0.0230
     58 H21       -12.2429   23.7462  -12.6679 H           1 K26       0.0230
     59 H22       -12.0044   22.0709  -10.9626 H           1 K26       0.1883
     60 H23        -8.7857   23.6047  -10.8902 H           1 K26       0.0467
     61 H24        -9.8679   22.7733  -12.0388 H           1 K26       0.0467
     62 H25        -9.4000   21.9820  -10.5025 H           1 K26       0.0467
     63 H26       -17.2652   21.5145   -8.0428 H           1 K26       0.0453
     64 H27       -16.4551   20.0361   -8.5016 H           1 K26       0.0453
     65 H28       -17.7800   18.8040  -10.6273 H           1 K26       0.0530
     66 H29       -19.9029   17.7500  -11.0463 H           1 K26       0.0525
     67 H30       -22.6184   18.8530  -10.4722 H           1 K26       0.2458
     68 H31       -21.6821   20.1049   -8.0497 H           1 K26       0.0525
     69 H32       -19.5718   21.1773   -7.6253 H           1 K26       0.0530
@<TRIPOS>BOND
     1     1     2  ar
     2     1     7  ar
     3     2     3  ar
     4     3     4   1
     5     3     5  ar
     6     5     6  ar
     7     6     7  ar
     8     7     8   1
     9     8     9   1
    10     9    10   1
    11     9    14   1
    12    10    11  ar
    13    10    12  ar
    14    10    13  ar
    15    14    15  am
    16    15    16   2
    17    15    17   1
    18    17    18   1
    19    17    30   1
    20    18    19  am
    21    19    20   2
    22    19    21   1
    23    21    22   1
    24    21    26   1
    25    22    23   1
    26    22    24   1
    27    24    25   1
    28    26    27  am
    29    27    28   1
    30    27    29   2
    31    30    31   1
    32    31    32  ar
    33    31    37  ar
    34    32    33  ar
    35    33    34  ar
    36    34    35   1
    37    34    36  ar
    38    36    37  ar
    39     1    38   1
    40     2    39   1
    41     4    40   1
    42     5    41   1
    43     6    42   1
    44     8    43   1
    45     8    44   1
    46     9    45   1
    47    14    46   1
    48    17    47   1
    49    18    48   1
    50    21    49   1
    51    22    50   1
    52    23    51   1
    53    23    52   1
    54    23    53   1
    55    24    54   1
    56    24    55   1
    57    25    56   1
    58    25    57   1
    59    25    58   1
    60    26    59   1
    61    28    60   1
    62    28    61   1
    63    28    62   1
    64    30    63   1
    65    30    64   1
    66    32    65   1
    67    33    66   1
    68    35    67   1
    69    36    68   1
    70    37    69   1
@<TRIPOS>SUBSTRUCTURE
     1  K26      1

