@<TRIPOS>MOLECULE
2xhm_ligand_038
    69    70
SMALL
GAST_HUCK
****
This file was generated by PARSER (from files_GN.cpp)

@<TRIPOS>ATOM
      1 CAR       -12.3145   24.8626   -7.8391 C.ar        1 K26      -0.0686
      2 CAN       -11.7155   24.2974   -6.6990 C.ar        1 K26      -0.0398
      3 CBD       -10.4034   23.7929   -6.7660 C.ar        1 K26       0.0805
      4 OAI        -9.8448   23.1790   -5.6937 O.3         1 K26      -0.3376
      5 CAO        -9.6763   23.9069   -7.9660 C.ar        1 K26      -0.0398
      6 CAS       -10.2773   24.4721   -9.1064 C.ar        1 K26      -0.0686
      7 CBF       -11.6196   24.9242   -9.0695 C.ar        1 K26      -0.0501
      8 CAV       -12.3038   25.4059  -10.3068 C.3         1 K26       0.0145
      9 CBI       -13.0504   24.3041  -11.1385 C.3         1 K26       0.1207
     10 PBK       -12.0229   23.1346  -11.7698 P.3         1 K26       0.0863
     11 OAJ       -10.9012   23.7277  -12.4568 O.co2       1 K26      -0.5606
     12 OAK       -11.4976   22.2372  -10.7703 O.co2       1 K26      -0.5606
     13 OAG       -12.6873   22.3255  -12.7615 O.co2       1 K26      -0.5606
     14 NAY       -14.1533   23.7664  -10.3764 N.am        1 K26      -0.2653
     15 C         -15.1217   22.9485  -10.7876 C.2         1 K26       0.2049
     16 O         -15.0848   22.4510  -11.9063 O.2         1 K26      -0.3943
     17 CA        -16.2513   22.6305   -9.9186 C.3         1 K26       0.1389
     18 N         -17.4549   23.2441  -10.4300 N.am        1 K26      -0.2621
     19 CBB       -18.4361   22.6936  -11.1418 C.2         1 K26       0.2043
     20 OAF       -18.4056   21.4957  -11.3994 O.2         1 K26      -0.3944
     21 CBJ       -19.5370   23.5308  -11.6454 C.3         1 K26       0.1334
     22 CBG       -20.5321   24.0074  -10.5211 C.3         1 K26      -0.0037
     23 CAC       -21.5320   25.0653  -11.0708 C.3         1 K26      -0.0582
     24 CAT       -21.2223   22.8686   -9.6869 C.3         1 K26      -0.0491
     25 CAA       -22.6348   22.3896  -10.1108 C.3         1 K26      -0.0648
     26 NAX       -20.2611   22.9102  -12.7302 N.am        1 K26      -0.2656
     27 CAZ       -19.7863   22.6310  -13.9395 C.2         1 K26       0.1751
     28 CAB       -20.5904   21.8264  -14.8241 C.3         1 K26       0.0258
     29 OAD       -18.6624   22.9668  -14.2889 O.2         1 K26      -0.3972
     30 CB        -16.3223   21.1012   -9.5944 C.3         1 K26       0.0163
     31 CG        -17.6195   20.6462   -9.0267 C.ar        1 K26      -0.0493
     32 CD1       -18.3734   19.6207   -9.6476 C.ar        1 K26      -0.0685
     33 CE1       -19.6261   19.2365   -9.1329 C.ar        1 K26      -0.0398
     34 CZ        -20.1508   19.8734   -7.9917 C.ar        1 K26       0.0805
     35 OH        -21.3675   19.5415   -7.4975 O.3         1 K26      -0.3376
     36 CE2       -19.4008   20.8742   -7.3482 C.ar        1 K26      -0.0398
     37 CD2       -18.1360   21.2458   -7.8536 C.ar        1 K26      -0.0685
     38 H1        -13.2705   25.2189   -7.7705 H           1 K26       0.0530
     39 H2        -12.2402   24.2437   -5.8221 H           1 K26       0.0525
     40 H3        -10.5611   22.6364   -5.2963 H           1 K26       0.2458
     41 H4         -8.7195   23.5522   -8.0192 H           1 K26       0.0525
     42 H5         -9.7393   24.5200   -9.9732 H           1 K26       0.0530
     43 H6        -11.5749   25.9170  -10.9478 H           1 K26       0.0442
     44 H7        -13.0267   26.1820  -10.0265 H           1 K26       0.0442
     45 H8        -13.4774   24.8316  -11.9956 H           1 K26       0.0771
     46 H9        -14.2550   24.1066   -9.4752 H           1 K26       0.1870
     47 H10       -16.0890   23.1318   -8.9586 H           1 K26       0.0821
     48 H11       -17.5439   24.1952  -10.2477 H           1 K26       0.1885
     49 H12       -19.0685   24.4343  -12.0406 H           1 K26       0.0803
     50 H13       -19.9224   24.5691   -9.7985 H           1 K26       0.0345
     51 H14       -22.1585   25.4510  -10.2653 H           1 K26       0.0235
     52 H15       -22.1747   24.6261  -11.8365 H           1 K26       0.0235
     53 H16       -20.9946   25.9085  -11.5116 H           1 K26       0.0235
     54 H17       -21.3124   23.2098   -8.6489 H           1 K26       0.0267
     55 H18       -20.5684   21.9920   -9.6689 H           1 K26       0.0267
     56 H19       -22.9390   21.5467   -9.4846 H           1 K26       0.0230
     57 H20       -22.6470   22.0667  -11.1514 H           1 K26       0.0230
     58 H21       -23.3664   23.1905   -9.9763 H           1 K26       0.0230
     59 H22       -21.1684   22.6325  -12.5512 H           1 K26       0.1883
     60 H23       -20.0736   21.6264  -15.7680 H           1 K26       0.0467
     61 H24       -21.5279   22.3399  -15.0413 H           1 K26       0.0467
     62 H25       -20.8081   20.8677  -14.3476 H           1 K26       0.0467
     63 H26       -15.5289   20.8604   -8.8755 H           1 K26       0.0453
     64 H27       -16.0938   20.5377  -10.5031 H           1 K26       0.0453
     65 H28       -18.0199   19.1474  -10.4816 H           1 K26       0.0530
     66 H29       -20.1572   18.4956   -9.5956 H           1 K26       0.0525
     67 H30       -21.4130   18.5618   -7.5340 H           1 K26       0.2458
     68 H31       -19.7669   21.3377   -6.5142 H           1 K26       0.0525
     69 H32       -17.6067   21.9655   -7.3645 H           1 K26       0.0530
@<TRIPOS>BOND
     1     1     2  ar
     2     1     7  ar
     3     2     3  ar
     4     3     4   1
     5     3     5  ar
     6     5     6  ar
     7     6     7  ar
     8     7     8   1
     9     8     9   1
    10     9    10   1
    11     9    14   1
    12    10    11  ar
    13    10    12  ar
    14    10    13  ar
    15    14    15  am
    16    15    16   2
    17    15    17   1
    18    17    18   1
    19    17    30   1
    20    18    19  am
    21    19    20   2
    22    19    21   1
    23    21    22   1
    24    21    26   1
    25    22    23   1
    26    22    24   1
    27    24    25   1
    28    26    27  am
    29    27    28   1
    30    27    29   2
    31    30    31   1
    32    31    32  ar
    33    31    37  ar
    34    32    33  ar
    35    33    34  ar
    36    34    35   1
    37    34    36  ar
    38    36    37  ar
    39     1    38   1
    40     2    39   1
    41     4    40   1
    42     5    41   1
    43     6    42   1
    44     8    43   1
    45     8    44   1
    46     9    45   1
    47    14    46   1
    48    17    47   1
    49    18    48   1
    50    21    49   1
    51    22    50   1
    52    23    51   1
    53    23    52   1
    54    23    53   1
    55    24    54   1
    56    24    55   1
    57    25    56   1
    58    25    57   1
    59    25    58   1
    60    26    59   1
    61    28    60   1
    62    28    61   1
    63    28    62   1
    64    30    63   1
    65    30    64   1
    66    32    65   1
    67    33    66   1
    68    35    67   1
    69    36    68   1
    70    37    69   1
@<TRIPOS>SUBSTRUCTURE
     1  K26      1

