@<TRIPOS>MOLECULE
2xhm_ligand_029
    69    70
SMALL
GAST_HUCK
****
This file was generated by PARSER (from files_GN.cpp)

@<TRIPOS>ATOM
      1 CAR       -10.5752   24.7313   -9.2206 C.ar        1 K26      -0.0686
      2 CAN        -9.4967   25.5171   -9.6630 C.ar        1 K26      -0.0398
      3 CBD        -9.6872   26.4715  -10.6826 C.ar        1 K26       0.0805
      4 OAI        -8.6522   27.2616  -11.0673 O.3         1 K26      -0.3376
      5 CAO       -10.9570   26.6051  -11.2809 C.ar        1 K26      -0.0398
      6 CAS       -12.0336   25.8175  -10.8415 C.ar        1 K26      -0.0686
      7 CBF       -11.8618   24.8784   -9.7949 C.ar        1 K26      -0.0501
      8 CAV       -13.0187   24.0842   -9.3004 C.3         1 K26       0.0145
      9 CBI       -13.8697   23.3782  -10.4022 C.3         1 K26       0.1207
     10 PBK       -13.0616   22.1776  -11.2502 P.3         1 K26       0.0863
     11 OAJ       -12.5257   21.1323  -10.4151 O.co2       1 K26      -0.5606
     12 OAK       -14.0033   21.5936  -12.1753 O.co2       1 K26      -0.5606
     13 OAG       -11.9998   22.7161  -12.0629 O.co2       1 K26      -0.5606
     14 NAY       -15.0612   22.8678   -9.7701 N.am        1 K26      -0.2653
     15 C         -16.1094   22.3014  -10.3527 C.2         1 K26       0.2049
     16 O         -16.1172   22.1270  -11.5672 O.2         1 K26      -0.3943
     17 CA        -17.2512   21.9311   -9.5104 C.3         1 K26       0.1389
     18 N         -18.4653   21.8960  -10.2862 N.am        1 K26      -0.2621
     19 CBB       -19.7059   21.8663   -9.8436 C.2         1 K26       0.2043
     20 OAF       -19.9375   21.8777   -8.6315 O.2         1 K26      -0.3944
     21 CBJ       -20.8261   22.0250  -10.7748 C.3         1 K26       0.1334
     22 CBG       -20.8977   21.0935  -12.0489 C.3         1 K26      -0.0037
     23 CAC       -20.3964   21.7765  -13.3556 C.3         1 K26      -0.0582
     24 CAT       -20.2336   19.6844  -11.8844 C.3         1 K26      -0.0491
     25 CAA       -20.8726   18.7795  -10.7991 C.3         1 K26      -0.0648
     26 NAX       -21.0819   23.4043  -11.1007 N.am        1 K26      -0.2656
     27 CAZ       -20.2126   24.3934  -11.2654 C.2         1 K26       0.1751
     28 CAB       -20.6854   25.6703  -11.7121 C.3         1 K26       0.0258
     29 OAD       -19.0083   24.2477  -11.0482 O.2         1 K26      -0.3972
     30 CB        -17.0010   20.5753   -8.7627 C.3         1 K26       0.0163
     31 CG        -17.6980   20.4422   -7.4579 C.ar        1 K26      -0.0493
     32 CD1       -18.8797   19.6717   -7.3250 C.ar        1 K26      -0.0685
     33 CE1       -19.4754   19.4727   -6.0625 C.ar        1 K26      -0.0398
     34 CZ        -18.9098   20.0549   -4.9094 C.ar        1 K26       0.0805
     35 OH        -19.4606   19.8196   -3.7022 O.3         1 K26      -0.3376
     36 CE2       -17.7545   20.8579   -5.0349 C.ar        1 K26      -0.0398
     37 CD2       -17.1575   21.0463   -6.2984 C.ar        1 K26      -0.0685
     38 H1        -10.4180   24.0490   -8.4761 H           1 K26       0.0530
     39 H2         -8.5763   25.4027   -9.2329 H           1 K26       0.0525
     40 H3         -8.9295   28.1813  -10.8558 H           1 K26       0.2458
     41 H4        -11.0962   27.2842  -12.0299 H           1 K26       0.0525
     42 H5        -12.9511   25.9420  -11.2751 H           1 K26       0.0530
     43 H6        -13.6663   24.7771   -8.7544 H           1 K26       0.0442
     44 H7        -12.6895   23.3351   -8.5748 H           1 K26       0.0442
     45 H8        -14.1645   24.1464  -11.1258 H           1 K26       0.0771
     46 H9        -15.1487   23.0436   -8.8189 H           1 K26       0.1870
     47 H10       -17.3516   22.7483   -8.7709 H           1 K26       0.0821
     48 H11       -18.3424   21.9203  -11.2372 H           1 K26       0.1885
     49 H12       -21.7194   21.7412  -10.1917 H           1 K26       0.0803
     50 H13       -21.9574   20.8993  -12.2320 H           1 K26       0.0345
     51 H14       -20.4853   21.0977  -14.2056 H           1 K26       0.0235
     52 H15       -19.3601   22.0960  -13.2671 H           1 K26       0.0235
     53 H16       -21.0083   22.6500  -13.5902 H           1 K26       0.0235
     54 H17       -19.1678   19.7912  -11.6638 H           1 K26       0.0267
     55 H18       -20.3087   19.1398  -12.8322 H           1 K26       0.0267
     56 H19       -20.3190   17.8359  -10.7335 H           1 K26       0.0230
     57 H20       -21.9113   18.5610  -11.0557 H           1 K26       0.0230
     58 H21       -20.8425   19.2592   -9.8192 H           1 K26       0.0230
     59 H22       -22.0094   23.6215  -11.3000 H           1 K26       0.1883
     60 H23       -19.8959   26.4282  -11.6936 H           1 K26       0.0467
     61 H24       -21.5006   26.0106  -11.0616 H           1 K26       0.0467
     62 H25       -21.0525   25.5842  -12.7441 H           1 K26       0.0467
     63 H26       -15.9304   20.4402   -8.5606 H           1 K26       0.0453
     64 H27       -17.2877   19.7580   -9.4327 H           1 K26       0.0453
     65 H28       -19.3039   19.2301   -8.1424 H           1 K26       0.0530
     66 H29       -20.3080   18.8892   -5.9796 H           1 K26       0.0525
     67 H30       -18.7367   19.4794   -3.1280 H           1 K26       0.2458
     68 H31       -17.3384   21.2950   -4.2088 H           1 K26       0.0525
     69 H32       -16.3026   21.5976   -6.3554 H           1 K26       0.0530
@<TRIPOS>BOND
     1     1     2  ar
     2     1     7  ar
     3     2     3  ar
     4     3     4   1
     5     3     5  ar
     6     5     6  ar
     7     6     7  ar
     8     7     8   1
     9     8     9   1
    10     9    10   1
    11     9    14   1
    12    10    11  ar
    13    10    12  ar
    14    10    13  ar
    15    14    15  am
    16    15    16   2
    17    15    17   1
    18    17    18   1
    19    17    30   1
    20    18    19  am
    21    19    20   2
    22    19    21   1
    23    21    22   1
    24    21    26   1
    25    22    23   1
    26    22    24   1
    27    24    25   1
    28    26    27  am
    29    27    28   1
    30    27    29   2
    31    30    31   1
    32    31    32  ar
    33    31    37  ar
    34    32    33  ar
    35    33    34  ar
    36    34    35   1
    37    34    36  ar
    38    36    37  ar
    39     1    38   1
    40     2    39   1
    41     4    40   1
    42     5    41   1
    43     6    42   1
    44     8    43   1
    45     8    44   1
    46     9    45   1
    47    14    46   1
    48    17    47   1
    49    18    48   1
    50    21    49   1
    51    22    50   1
    52    23    51   1
    53    23    52   1
    54    23    53   1
    55    24    54   1
    56    24    55   1
    57    25    56   1
    58    25    57   1
    59    25    58   1
    60    26    59   1
    61    28    60   1
    62    28    61   1
    63    28    62   1
    64    30    63   1
    65    30    64   1
    66    32    65   1
    67    33    66   1
    68    35    67   1
    69    36    68   1
    70    37    69   1
@<TRIPOS>SUBSTRUCTURE
     1  K26      1

