@<TRIPOS>MOLECULE
2xhm_ligand_005
    69    70
SMALL
GAST_HUCK
****
This file was generated by PARSER (from files_GN.cpp)

@<TRIPOS>ATOM
      1 CAR       -11.4240   22.5026  -10.9672 C.ar        1 K26      -0.0686
      2 CAN       -12.4349   21.7208  -11.5528 C.ar        1 K26      -0.0398
      3 CBD       -13.7787   21.9295  -11.1978 C.ar        1 K26       0.0805
      4 OAI       -14.7453   21.1924  -11.7894 O.3         1 K26      -0.3376
      5 CAO       -14.1077   22.9087  -10.2431 C.ar        1 K26      -0.0398
      6 CAS       -13.0921   23.6821   -9.6464 C.ar        1 K26      -0.0686
      7 CBF       -11.7368   23.4993  -10.0125 C.ar        1 K26      -0.0501
      8 CAV       -10.6392   24.3077   -9.4071 C.3         1 K26       0.0145
      9 CBI        -9.8062   25.1327  -10.4449 C.3         1 K26       0.1207
     10 PBK       -10.5803   26.5177  -10.9902 P.3         1 K26       0.0863
     11 OAJ       -10.9384   26.3715  -12.3837 O.co2       1 K26      -0.5606
     12 OAK       -11.8060   26.8289  -10.2915 O.co2       1 K26      -0.5606
     13 OAG        -9.7635   27.7088  -10.9158 O.co2       1 K26      -0.5606
     14 NAY        -8.5322   25.4328   -9.8575 N.am        1 K26      -0.2653
     15 C          -7.4036   25.7530  -10.4914 C.2         1 K26       0.2049
     16 O          -7.3715   25.8451  -11.7128 O.2         1 K26      -0.3943
     17 CA         -6.1916   26.0124   -9.7293 C.3         1 K26       0.1389
     18 N          -6.5078   26.9958   -8.7356 N.am        1 K26      -0.2621
     19 CBB        -6.0915   28.2505   -8.6535 C.2         1 K26       0.2043
     20 OAF        -5.3168   28.7342   -9.4774 O.2         1 K26      -0.3944
     21 CBJ        -6.5189   29.0242   -7.4874 C.3         1 K26       0.1334
     22 CBG        -6.0015   30.5102   -7.3690 C.3         1 K26      -0.0037
     23 CAC        -6.3810   31.3267   -8.6488 C.3         1 K26      -0.0582
     24 CAT        -6.5375   31.2022   -6.0666 C.3         1 K26      -0.0491
     25 CAA        -6.5589   32.7511   -6.0435 C.3         1 K26      -0.0648
     26 NAX        -6.3409   28.2630   -6.2720 N.am        1 K26      -0.2656
     27 CAZ        -5.4147   27.3667   -5.9593 C.2         1 K26       0.1751
     28 CAB        -5.5714   26.6311   -4.7254 C.3         1 K26       0.0258
     29 OAD        -4.4725   27.1074   -6.7013 O.2         1 K26      -0.3972
     30 CB         -5.6346   24.7395   -9.0195 C.3         1 K26       0.0163
     31 CG         -4.9586   23.8295   -9.9798 C.ar        1 K26      -0.0493
     32 CD1        -3.6319   24.0947  -10.3915 C.ar        1 K26      -0.0685
     33 CE1        -3.0179   23.3067  -11.3824 C.ar        1 K26      -0.0398
     34 CZ         -3.7304   22.2504  -11.9824 C.ar        1 K26       0.0805
     35 OH         -3.1892   21.5076  -12.9774 O.3         1 K26      -0.3376
     36 CE2        -5.0429   21.9684  -11.5646 C.ar        1 K26      -0.0398
     37 CD2        -5.6545   22.7487  -10.5665 C.ar        1 K26      -0.0685
     38 H1        -10.4522   22.3390  -11.2415 H           1 K26       0.0530
     39 H2        -12.1874   21.0063  -12.2401 H           1 K26       0.0525
     40 H3        -14.7031   20.3255  -11.3302 H           1 K26       0.2458
     41 H4        -15.0832   23.0596   -9.9781 H           1 K26       0.0525
     42 H5        -13.3504   24.3847   -8.9489 H           1 K26       0.0530
     43 H6         -9.9774   23.6087   -8.8900 H           1 K26       0.0442
     44 H7        -11.0274   24.9773   -8.6336 H           1 K26       0.0442
     45 H8         -9.6147   24.4879  -11.3075 H           1 K26       0.0771
     46 H9         -8.4738   25.3559   -8.8910 H           1 K26       0.1870
     47 H10        -5.4128   26.4007  -10.4000 H           1 K26       0.0821
     48 H11        -7.0737   26.6935   -8.0050 H           1 K26       0.1885
     49 H12        -7.6067   29.1143   -7.5921 H           1 K26       0.0803
     50 H13        -4.9075   30.4875   -7.3023 H           1 K26       0.0345
     51 H14        -5.8687   32.2963   -8.6487 H           1 K26       0.0235
     52 H15        -7.4631   31.5040   -8.6796 H           1 K26       0.0235
     53 H16        -6.0860   30.7843   -9.5571 H           1 K26       0.0235
     54 H17        -5.9128   30.8809   -5.2236 H           1 K26       0.0267
     55 H18        -7.5583   30.8566   -5.8732 H           1 K26       0.0267
     56 H19        -6.7907   33.0996   -5.0333 H           1 K26       0.0230
     57 H20        -7.3282   33.1319   -6.7154 H           1 K26       0.0230
     58 H21        -5.5885   33.1556   -6.3397 H           1 K26       0.0230
     59 H22        -6.9908   28.4266   -5.5704 H           1 K26       0.1883
     60 H23        -4.8158   25.8490   -4.6216 H           1 K26       0.0467
     61 H24        -6.5557   26.1565   -4.7048 H           1 K26       0.0467
     62 H25        -5.4843   27.3123   -3.8773 H           1 K26       0.0467
     63 H26        -6.4382   24.2141   -8.4944 H           1 K26       0.0453
     64 H27        -4.9147   25.0368   -8.2488 H           1 K26       0.0453
     65 H28        -3.1107   24.8772   -9.9897 H           1 K26       0.0530
     66 H29        -2.0646   23.5188  -11.6792 H           1 K26       0.0525
     67 H30        -2.2410   21.7571  -13.0313 H           1 K26       0.2458
     68 H31        -5.5659   21.2085  -12.0014 H           1 K26       0.0525
     69 H32        -6.6192   22.5424  -10.2966 H           1 K26       0.0530
@<TRIPOS>BOND
     1     1     2  ar
     2     1     7  ar
     3     2     3  ar
     4     3     4   1
     5     3     5  ar
     6     5     6  ar
     7     6     7  ar
     8     7     8   1
     9     8     9   1
    10     9    10   1
    11     9    14   1
    12    10    11  ar
    13    10    12  ar
    14    10    13  ar
    15    14    15  am
    16    15    16   2
    17    15    17   1
    18    17    18   1
    19    17    30   1
    20    18    19  am
    21    19    20   2
    22    19    21   1
    23    21    22   1
    24    21    26   1
    25    22    23   1
    26    22    24   1
    27    24    25   1
    28    26    27  am
    29    27    28   1
    30    27    29   2
    31    30    31   1
    32    31    32  ar
    33    31    37  ar
    34    32    33  ar
    35    33    34  ar
    36    34    35   1
    37    34    36  ar
    38    36    37  ar
    39     1    38   1
    40     2    39   1
    41     4    40   1
    42     5    41   1
    43     6    42   1
    44     8    43   1
    45     8    44   1
    46     9    45   1
    47    14    46   1
    48    17    47   1
    49    18    48   1
    50    21    49   1
    51    22    50   1
    52    23    51   1
    53    23    52   1
    54    23    53   1
    55    24    54   1
    56    24    55   1
    57    25    56   1
    58    25    57   1
    59    25    58   1
    60    26    59   1
    61    28    60   1
    62    28    61   1
    63    28    62   1
    64    30    63   1
    65    30    64   1
    66    32    65   1
    67    33    66   1
    68    35    67   1
    69    36    68   1
    70    37    69   1
@<TRIPOS>SUBSTRUCTURE
     1  K26      1

