@<TRIPOS>MOLECULE
2xhm_ligand_008
    69    70
SMALL
GAST_HUCK
****
This file was generated by PARSER (from files_GN.cpp)

@<TRIPOS>ATOM
      1 CAR       -23.8797   23.3879  -11.0545 C.ar        1 K26      -0.0686
      2 CAN       -24.6578   22.3519  -11.6098 C.ar        1 K26      -0.0398
      3 CBD       -24.1074   21.5120  -12.5921 C.ar        1 K26       0.0805
      4 OAI       -24.8433   20.5043  -13.1216 O.3         1 K26      -0.3376
      5 CAO       -22.7809   21.7255  -13.0332 C.ar        1 K26      -0.0398
      6 CAS       -21.9975   22.7444  -12.4581 C.ar        1 K26      -0.0686
      7 CBF       -22.5227   23.5643  -11.4277 C.ar        1 K26      -0.0501
      8 CAV       -21.6785   24.6000  -10.7563 C.3         1 K26       0.0145
      9 CBI       -20.6734   24.1136   -9.6454 C.3         1 K26       0.1207
     10 PBK       -21.3035   23.0098   -8.5489 P.3         1 K26       0.0863
     11 OAJ       -20.7319   21.6922   -8.7059 O.co2       1 K26      -0.5606
     12 OAK       -21.0810   23.4260   -7.1774 O.co2       1 K26      -0.5606
     13 OAG       -22.7391   22.8664   -8.6690 O.co2       1 K26      -0.5606
     14 NAY       -19.4617   23.6416  -10.2673 N.am        1 K26      -0.2653
     15 C         -18.2925   23.3614   -9.6899 C.2         1 K26       0.2049
     16 O         -18.1456   23.4663   -8.4756 O.2         1 K26      -0.3943
     17 CA        -17.2199   22.7639  -10.4729 C.3         1 K26       0.1389
     18 N         -15.9299   23.3088  -10.0983 N.am        1 K26      -0.2621
     19 CBB       -14.7913   23.1445  -10.7671 C.2         1 K26       0.2043
     20 OAF       -14.7761   22.4116  -11.7497 O.2         1 K26      -0.3944
     21 CBJ       -13.6086   23.9435  -10.4186 C.3         1 K26       0.1334
     22 CBG       -12.4115   23.9350  -11.4558 C.3         1 K26      -0.0037
     23 CAC       -11.6048   22.5995  -11.4343 C.3         1 K26      -0.0582
     24 CAT       -12.8385   24.3482  -12.9082 C.3         1 K26      -0.0491
     25 CAA       -11.6742   24.6441  -13.8858 C.3         1 K26      -0.0648
     26 NAX       -13.1745   23.5593   -9.0956 N.am        1 K26      -0.2656
     27 CAZ       -12.2989   24.1911   -8.3229 C.2         1 K26       0.1751
     28 CAB       -11.8844   23.5874   -7.0759 C.3         1 K26       0.0258
     29 OAD       -11.8078   25.2676   -8.6503 O.2         1 K26      -0.3972
     30 CB        -17.2625   21.2041  -10.3509 C.3         1 K26       0.0163
     31 CG        -18.4816   20.4924  -10.8452 C.ar        1 K26      -0.0493
     32 CD1       -18.8323   19.2391  -10.2856 C.ar        1 K26      -0.0685
     33 CE1       -19.8599   18.4536  -10.8409 C.ar        1 K26      -0.0398
     34 CZ        -20.5305   18.8885  -11.9985 C.ar        1 K26       0.0805
     35 OH        -21.4511   18.0846  -12.5970 O.3         1 K26      -0.3376
     36 CE2       -20.1952   20.1295  -12.5665 C.ar        1 K26      -0.0398
     37 CD2       -19.1888   20.9267  -11.9938 C.ar        1 K26      -0.0685
     38 H1        -24.3087   23.9978  -10.3598 H           1 K26       0.0530
     39 H2        -25.6170   22.2106  -11.2862 H           1 K26       0.0525
     40 H3        -24.8907   19.8393  -12.4019 H           1 K26       0.2458
     41 H4        -22.3922   21.1334  -13.7659 H           1 K26       0.0525
     42 H5        -21.0362   22.8755  -12.7844 H           1 K26       0.0530
     43 H6        -22.3379   25.3519  -10.3158 H           1 K26       0.0442
     44 H7        -21.1109   25.1375  -11.5206 H           1 K26       0.0442
     45 H8        -20.4073   25.0114   -9.0800 H           1 K26       0.0771
     46 H9        -19.4972   23.5243  -11.2310 H           1 K26       0.1870
     47 H10       -17.3600   23.0535  -11.5194 H           1 K26       0.0821
     48 H11       -15.9092   23.8974   -9.3239 H           1 K26       0.1885
     49 H12       -13.9645   24.9780  -10.3539 H           1 K26       0.0803
     50 H13       -11.7137   24.7097  -11.1234 H           1 K26       0.0345
     51 H14       -10.6869   22.6954  -12.0159 H           1 K26       0.0235
     52 H15       -12.1906   21.7776  -11.8480 H           1 K26       0.0235
     53 H16       -11.3141   22.3372  -10.4157 H           1 K26       0.0235
     54 H17       -13.4520   25.2517  -12.8571 H           1 K26       0.0267
     55 H18       -13.4499   23.5645  -13.3601 H           1 K26       0.0267
     56 H19       -12.0763   24.9358  -14.8585 H           1 K26       0.0230
     57 H20       -11.0504   23.7613  -14.0302 H           1 K26       0.0230
     58 H21       -11.0569   25.4609  -13.5078 H           1 K26       0.0230
     59 H22       -13.5353   22.7311   -8.7400 H           1 K26       0.1883
     60 H23       -11.0966   24.1655   -6.5885 H           1 K26       0.0467
     61 H24       -11.5075   22.5804   -7.2591 H           1 K26       0.0467
     62 H25       -12.7292   23.5212   -6.3923 H           1 K26       0.0467
     63 H26       -17.0760   20.9436   -9.3031 H           1 K26       0.0453
     64 H27       -16.4340   20.7873  -10.9279 H           1 K26       0.0453
     65 H28       -18.3149   18.8720   -9.4803 H           1 K26       0.0530
     66 H29       -20.0982   17.5514  -10.4237 H           1 K26       0.0525
     67 H30       -21.3199   18.2015  -13.5613 H           1 K26       0.2458
     68 H31       -20.6698   20.4459  -13.4245 H           1 K26       0.0525
     69 H32       -18.9415   21.7947  -12.4744 H           1 K26       0.0530
@<TRIPOS>BOND
     1     1     2  ar
     2     1     7  ar
     3     2     3  ar
     4     3     4   1
     5     3     5  ar
     6     5     6  ar
     7     6     7  ar
     8     7     8   1
     9     8     9   1
    10     9    10   1
    11     9    14   1
    12    10    11  ar
    13    10    12  ar
    14    10    13  ar
    15    14    15  am
    16    15    16   2
    17    15    17   1
    18    17    18   1
    19    17    30   1
    20    18    19  am
    21    19    20   2
    22    19    21   1
    23    21    22   1
    24    21    26   1
    25    22    23   1
    26    22    24   1
    27    24    25   1
    28    26    27  am
    29    27    28   1
    30    27    29   2
    31    30    31   1
    32    31    32  ar
    33    31    37  ar
    34    32    33  ar
    35    33    34  ar
    36    34    35   1
    37    34    36  ar
    38    36    37  ar
    39     1    38   1
    40     2    39   1
    41     4    40   1
    42     5    41   1
    43     6    42   1
    44     8    43   1
    45     8    44   1
    46     9    45   1
    47    14    46   1
    48    17    47   1
    49    18    48   1
    50    21    49   1
    51    22    50   1
    52    23    51   1
    53    23    52   1
    54    23    53   1
    55    24    54   1
    56    24    55   1
    57    25    56   1
    58    25    57   1
    59    25    58   1
    60    26    59   1
    61    28    60   1
    62    28    61   1
    63    28    62   1
    64    30    63   1
    65    30    64   1
    66    32    65   1
    67    33    66   1
    68    35    67   1
    69    36    68   1
    70    37    69   1
@<TRIPOS>SUBSTRUCTURE
     1  K26      1

