@<TRIPOS>MOLECULE
2xhm_ligand_065
    69    70
SMALL
GAST_HUCK
****
This file was generated by PARSER (from files_GN.cpp)

@<TRIPOS>ATOM
      1 CAR       -16.4718   22.4709  -10.9900 C.ar        1 K26      -0.0686
      2 CAN       -17.5559   21.5720  -10.9487 C.ar        1 K26      -0.0398
      3 CBD       -17.7186   20.7147   -9.8474 C.ar        1 K26       0.0805
      4 OAI       -18.7447   19.8301   -9.8238 O.3         1 K26      -0.3376
      5 CAO       -16.8052   20.7710   -8.7797 C.ar        1 K26      -0.0398
      6 CAS       -15.7186   21.6653   -8.8276 C.ar        1 K26      -0.0686
      7 CBF       -15.5290   22.5276   -9.9342 C.ar        1 K26      -0.0501
      8 CAV       -14.3781   23.4871   -9.9696 C.3         1 K26       0.0145
      9 CBI       -12.9571   22.8704  -10.2165 C.3         1 K26       0.1207
     10 PBK       -12.7360   22.1417  -11.7087 P.3         1 K26       0.0863
     11 OAJ       -12.2303   23.0521  -12.7087 O.co2       1 K26      -0.5606
     12 OAK       -11.7666   21.0742  -11.6241 O.co2       1 K26      -0.5606
     13 OAG       -13.9543   21.6275  -12.2895 O.co2       1 K26      -0.5606
     14 NAY       -11.8861   23.8055   -9.9391 N.am        1 K26      -0.2653
     15 C         -11.6195   24.9622  -10.5446 C.2         1 K26       0.2049
     16 O         -12.3788   25.3606  -11.4205 O.2         1 K26      -0.3943
     17 CA        -10.5578   25.8578  -10.0611 C.3         1 K26       0.1389
     18 N          -9.4344   25.1452   -9.4867 N.am        1 K26      -0.2621
     19 CBB        -8.5747   24.3362  -10.0940 C.2         1 K26       0.2043
     20 OAF        -8.7364   24.0994  -11.2868 O.2         1 K26      -0.3944
     21 CBJ        -7.5754   23.5599   -9.3331 C.3         1 K26       0.1334
     22 CBG        -6.7711   24.2663   -8.1588 C.3         1 K26      -0.0037
     23 CAC        -6.4991   25.7912   -8.3300 C.3         1 K26      -0.0582
     24 CAT        -7.2626   23.9178   -6.7069 C.3         1 K26      -0.0491
     25 CAA        -8.5423   24.5988   -6.1658 C.3         1 K26      -0.0648
     26 NAX        -6.6745   22.8142  -10.1931 N.am        1 K26      -0.2656
     27 CAZ        -5.7936   23.2882  -11.0679 C.2         1 K26       0.1751
     28 CAB        -4.9408   22.3693  -11.7921 C.3         1 K26       0.0258
     29 OAD        -5.6960   24.4874  -11.3022 O.2         1 K26      -0.3972
     30 CB        -10.0881   26.9464  -11.0932 C.3         1 K26       0.0163
     31 CG         -9.3272   28.1472  -10.6340 C.ar        1 K26      -0.0493
     32 CD1        -9.0780   29.1776  -11.5807 C.ar        1 K26      -0.0685
     33 CE1        -8.4673   30.3860  -11.2029 C.ar        1 K26      -0.0398
     34 CZ         -8.1151   30.6064   -9.8607 C.ar        1 K26       0.0805
     35 OH         -7.5698   31.7942   -9.4978 O.3         1 K26      -0.3376
     36 CE2        -8.3267   29.5865   -8.9130 C.ar        1 K26      -0.0398
     37 CD2        -8.9191   28.3658   -9.2975 C.ar        1 K26      -0.0685
     38 H1        -16.3704   23.0698  -11.8111 H           1 K26       0.0530
     39 H2        -18.2212   21.5391  -11.7237 H           1 K26       0.0525
     40 H3        -19.4449   20.2729   -9.3010 H           1 K26       0.2458
     41 H4        -16.9226   20.1546   -7.9727 H           1 K26       0.0525
     42 H5        -15.0722   21.6889   -8.0399 H           1 K26       0.0530
     43 H6        -14.3642   24.0155   -9.0123 H           1 K26       0.0442
     44 H7        -14.5629   24.2454  -10.7296 H           1 K26       0.0442
     45 H8        -12.8344   22.0772   -9.4754 H           1 K26       0.0771
     46 H9        -11.2883   23.5526   -9.2134 H           1 K26       0.1870
     47 H10       -11.0286   26.3947   -9.2339 H           1 K26       0.0821
     48 H11        -9.3027   25.2788   -8.5376 H           1 K26       0.1885
     49 H12        -8.1694   22.7702   -8.8673 H           1 K26       0.0803
     50 H13        -5.7624   23.8253   -8.1824 H           1 K26       0.0345
     51 H14        -5.8060   26.1369   -7.5543 H           1 K26       0.0235
     52 H15        -7.4223   26.3699   -8.2495 H           1 K26       0.0235
     53 H16        -6.0428   26.0019   -9.2999 H           1 K26       0.0235
     54 H17        -6.4542   24.1612   -6.0074 H           1 K26       0.0267
     55 H18        -7.4187   22.8394   -6.6365 H           1 K26       0.0267
     56 H19        -8.7084   24.2972   -5.1255 H           1 K26       0.0230
     57 H20        -9.4184   24.3026   -6.7467 H           1 K26       0.0230
     58 H21        -8.4456   25.6883   -6.1842 H           1 K26       0.0230
     59 H22        -6.6972   21.8460  -10.1022 H           1 K26       0.1883
     60 H23        -4.2817   22.8931  -12.4923 H           1 K26       0.0467
     61 H24        -5.5533   21.6682  -12.3619 H           1 K26       0.0467
     62 H25        -4.3161   21.8085  -11.0932 H           1 K26       0.0467
     63 H26       -10.9769   27.3617  -11.5766 H           1 K26       0.0453
     64 H27        -9.5028   26.4564  -11.8742 H           1 K26       0.0453
     65 H28        -9.3665   29.0626  -12.5580 H           1 K26       0.0530
     66 H29        -8.3036   31.1153  -11.9022 H           1 K26       0.0525
     67 H30        -8.0128   32.0373   -8.6568 H           1 K26       0.2458
     68 H31        -8.0606   29.7324   -7.9372 H           1 K26       0.0525
     69 H32        -9.0560   27.6509   -8.5756 H           1 K26       0.0530
@<TRIPOS>BOND
     1     1     2  ar
     2     1     7  ar
     3     2     3  ar
     4     3     4   1
     5     3     5  ar
     6     5     6  ar
     7     6     7  ar
     8     7     8   1
     9     8     9   1
    10     9    10   1
    11     9    14   1
    12    10    11  ar
    13    10    12  ar
    14    10    13  ar
    15    14    15  am
    16    15    16   2
    17    15    17   1
    18    17    18   1
    19    17    30   1
    20    18    19  am
    21    19    20   2
    22    19    21   1
    23    21    22   1
    24    21    26   1
    25    22    23   1
    26    22    24   1
    27    24    25   1
    28    26    27  am
    29    27    28   1
    30    27    29   2
    31    30    31   1
    32    31    32  ar
    33    31    37  ar
    34    32    33  ar
    35    33    34  ar
    36    34    35   1
    37    34    36  ar
    38    36    37  ar
    39     1    38   1
    40     2    39   1
    41     4    40   1
    42     5    41   1
    43     6    42   1
    44     8    43   1
    45     8    44   1
    46     9    45   1
    47    14    46   1
    48    17    47   1
    49    18    48   1
    50    21    49   1
    51    22    50   1
    52    23    51   1
    53    23    52   1
    54    23    53   1
    55    24    54   1
    56    24    55   1
    57    25    56   1
    58    25    57   1
    59    25    58   1
    60    26    59   1
    61    28    60   1
    62    28    61   1
    63    28    62   1
    64    30    63   1
    65    30    64   1
    66    32    65   1
    67    33    66   1
    68    35    67   1
    69    36    68   1
    70    37    69   1
@<TRIPOS>SUBSTRUCTURE
     1  K26      1

