@<TRIPOS>MOLECULE
2xhm_ligand_041
    69    70
SMALL
GAST_HUCK
****
This file was generated by PARSER (from files_GN.cpp)

@<TRIPOS>ATOM
      1 CAR        -4.0709   25.0912  -12.7419 C.ar        1 K26      -0.0686
      2 CAN        -3.0166   24.9518  -13.6589 C.ar        1 K26      -0.0398
      3 CBD        -3.1088   25.5578  -14.9236 C.ar        1 K26       0.0805
      4 OAI        -2.1033   25.4007  -15.8139 O.3         1 K26      -0.3376
      5 CAO        -4.2556   26.2980  -15.2658 C.ar        1 K26      -0.0398
      6 CAS        -5.3127   26.4374  -14.3439 C.ar        1 K26      -0.0686
      7 CBF        -5.2297   25.8338  -13.0679 C.ar        1 K26      -0.0501
      8 CAV        -6.3310   25.9773  -12.0702 C.3         1 K26       0.0145
      9 CBI        -7.6639   25.1640  -12.2529 C.3         1 K26       0.1207
     10 PBK        -7.5516   23.7242  -13.0879 P.3         1 K26       0.0863
     11 OAJ        -7.3178   23.9493  -14.4982 O.co2       1 K26      -0.5606
     12 OAK        -6.4742   22.9066  -12.5767 O.co2       1 K26      -0.5606
     13 OAG        -8.7773   22.9678  -12.9912 O.co2       1 K26      -0.5606
     14 NAY        -8.1653   24.8280  -10.9418 N.am        1 K26      -0.2653
     15 C          -9.3739   25.0326  -10.4251 C.2         1 K26       0.2049
     16 O         -10.2336   25.6289  -11.0643 O.2         1 K26      -0.3943
     17 CA         -9.6785   24.4208   -9.1314 C.3         1 K26       0.1389
     18 N          -8.9413   25.1179   -8.1044 N.am        1 K26      -0.2621
     19 CBB        -7.9926   24.6069   -7.3217 C.2         1 K26       0.2043
     20 OAF        -7.7196   23.4093   -7.4065 O.2         1 K26      -0.3944
     21 CBJ        -7.2429   25.4452   -6.3777 C.3         1 K26       0.1334
     22 CBG        -6.5649   26.7046   -7.0389 C.3         1 K26      -0.0037
     23 CAC        -5.5998   27.4555   -6.0712 C.3         1 K26      -0.0582
     24 CAT        -5.8971   26.4803   -8.4318 C.3         1 K26      -0.0491
     25 CAA        -4.8500   25.3389   -8.5534 C.3         1 K26      -0.0648
     26 NAX        -6.2533   24.6948   -5.6354 N.am        1 K26      -0.2656
     27 CAZ        -6.4806   23.7834   -4.7039 C.2         1 K26       0.1751
     28 CAB        -5.3440   23.1775   -4.0521 C.3         1 K26       0.0258
     29 OAD        -7.6173   23.4641   -4.3689 O.2         1 K26      -0.3972
     30 CB        -11.1904   24.3557   -8.7325 C.3         1 K26       0.0163
     31 CG        -12.1117   23.5575   -9.5980 C.ar        1 K26      -0.0493
     32 CD1       -11.6752   22.4829  -10.4166 C.ar        1 K26      -0.0685
     33 CE1       -12.5866   21.7056  -11.1501 C.ar        1 K26      -0.0398
     34 CZ        -13.9611   21.9805  -11.0787 C.ar        1 K26       0.0805
     35 OH        -14.8327   21.2295  -11.7864 O.3         1 K26      -0.3376
     36 CE2       -14.4207   23.0300  -10.2663 C.ar        1 K26      -0.0398
     37 CD2       -13.5041   23.8025   -9.5286 C.ar        1 K26      -0.0685
     38 H1         -3.9842   24.6283  -11.8346 H           1 K26       0.0530
     39 H2         -2.1905   24.4071  -13.4043 H           1 K26       0.0525
     40 H3         -1.2797   25.5295  -15.2956 H           1 K26       0.2458
     41 H4         -4.3239   26.7415  -16.1840 H           1 K26       0.0525
     42 H5         -6.1380   26.9818  -14.6060 H           1 K26       0.0530
     43 H6         -6.5861   27.0395  -11.9937 H           1 K26       0.0442
     44 H7         -5.9116   25.7135  -11.1027 H           1 K26       0.0442
     45 H8         -8.3770   25.7882  -12.8014 H           1 K26       0.0771
     46 H9         -7.5516   24.3299  -10.3760 H           1 K26       0.1870
     47 H10        -9.3338   23.3879   -9.1823 H           1 K26       0.0821
     48 H11        -9.1420   26.0619   -7.9957 H           1 K26       0.1885
     49 H12        -7.9666   25.8305   -5.6525 H           1 K26       0.0803
     50 H13        -7.3801   27.4176   -7.2153 H           1 K26       0.0345
     51 H14        -5.3785   28.4525   -6.4592 H           1 K26       0.0235
     52 H15        -4.6575   26.9128   -5.9565 H           1 K26       0.0235
     53 H16        -6.0562   27.5647   -5.0872 H           1 K26       0.0235
     54 H17        -5.4254   27.4110   -8.7585 H           1 K26       0.0267
     55 H18        -6.7016   26.2812   -9.1444 H           1 K26       0.0267
     56 H19        -4.3253   25.4217   -9.5059 H           1 K26       0.0230
     57 H20        -5.3414   24.3640   -8.5180 H           1 K26       0.0230
     58 H21        -4.1146   25.3965   -7.7536 H           1 K26       0.0230
     59 H22        -5.3225   24.8904   -5.8207 H           1 K26       0.1883
     60 H23        -5.6576   22.4748   -3.2776 H           1 K26       0.0467
     61 H24        -4.7273   23.9550   -3.5973 H           1 K26       0.0467
     62 H25        -4.7390   22.6337   -4.7750 H           1 K26       0.0467
     63 H26       -11.5493   25.3897   -8.6612 H           1 K26       0.0453
     64 H27       -11.2608   23.9259   -7.7328 H           1 K26       0.0453
     65 H28       -10.6888   22.2359  -10.4870 H           1 K26       0.0530
     66 H29       -12.2457   20.9343  -11.7339 H           1 K26       0.0525
     67 H30       -14.7692   20.3375  -11.3793 H           1 K26       0.2458
     68 H31       -15.4240   23.2254  -10.1999 H           1 K26       0.0525
     69 H32       -13.8683   24.5459   -8.9270 H           1 K26       0.0530
@<TRIPOS>BOND
     1     1     2  ar
     2     1     7  ar
     3     2     3  ar
     4     3     4   1
     5     3     5  ar
     6     5     6  ar
     7     6     7  ar
     8     7     8   1
     9     8     9   1
    10     9    10   1
    11     9    14   1
    12    10    11  ar
    13    10    12  ar
    14    10    13  ar
    15    14    15  am
    16    15    16   2
    17    15    17   1
    18    17    18   1
    19    17    30   1
    20    18    19  am
    21    19    20   2
    22    19    21   1
    23    21    22   1
    24    21    26   1
    25    22    23   1
    26    22    24   1
    27    24    25   1
    28    26    27  am
    29    27    28   1
    30    27    29   2
    31    30    31   1
    32    31    32  ar
    33    31    37  ar
    34    32    33  ar
    35    33    34  ar
    36    34    35   1
    37    34    36  ar
    38    36    37  ar
    39     1    38   1
    40     2    39   1
    41     4    40   1
    42     5    41   1
    43     6    42   1
    44     8    43   1
    45     8    44   1
    46     9    45   1
    47    14    46   1
    48    17    47   1
    49    18    48   1
    50    21    49   1
    51    22    50   1
    52    23    51   1
    53    23    52   1
    54    23    53   1
    55    24    54   1
    56    24    55   1
    57    25    56   1
    58    25    57   1
    59    25    58   1
    60    26    59   1
    61    28    60   1
    62    28    61   1
    63    28    62   1
    64    30    63   1
    65    30    64   1
    66    32    65   1
    67    33    66   1
    68    35    67   1
    69    36    68   1
    70    37    69   1
@<TRIPOS>SUBSTRUCTURE
     1  K26      1

