@<TRIPOS>MOLECULE
2xhm_ligand_068
    69    70
SMALL
GAST_HUCK
****
This file was generated by PARSER (from files_GN.cpp)

@<TRIPOS>ATOM
      1 CAR       -11.5007   25.5087  -12.6080 C.ar        1 K26      -0.0686
      2 CAN       -10.3202   25.8427  -13.2947 C.ar        1 K26      -0.0398
      3 CBD        -9.8411   25.0154  -14.3282 C.ar        1 K26       0.0805
      4 OAI        -8.6859   25.3409  -14.9612 O.3         1 K26      -0.3376
      5 CAO       -10.5596   23.8541  -14.6805 C.ar        1 K26      -0.0398
      6 CAS       -11.7422   23.5238  -13.9976 C.ar        1 K26      -0.0686
      7 CBF       -12.2150   24.3353  -12.9367 C.ar        1 K26      -0.0501
      8 CAV       -13.4089   23.9218  -12.1327 C.3         1 K26       0.0145
      9 CBI       -13.1859   22.7520  -11.1186 C.3         1 K26       0.1207
     10 PBK       -11.8237   22.9199  -10.1419 P.3         1 K26       0.0863
     11 OAJ       -10.9142   21.8329  -10.4156 O.co2       1 K26      -0.5606
     12 OAK       -11.0396   24.0986  -10.4134 O.co2       1 K26      -0.5606
     13 OAG       -12.0553   22.9615   -8.7202 O.co2       1 K26      -0.5606
     14 NAY       -14.3343   22.5619  -10.2646 N.am        1 K26      -0.2653
     15 C         -15.5894   22.2909  -10.6157 C.2         1 K26       0.2049
     16 O         -15.8678   22.1324  -11.8035 O.2         1 K26      -0.3943
     17 CA        -16.5940   22.1163   -9.5633 C.3         1 K26       0.1389
     18 N         -17.9271   22.1566  -10.1088 N.am        1 K26      -0.2621
     19 CBB       -19.0822   22.2516   -9.4525 C.2         1 K26       0.2043
     20 OAF       -19.0870   22.3867   -8.2337 O.2         1 K26      -0.3944
     21 CBJ       -20.3615   22.2984  -10.1725 C.3         1 K26       0.1334
     22 CBG       -20.7752   20.9800  -10.9266 C.3         1 K26      -0.0037
     23 CAC       -19.6853   20.4088  -11.8870 C.3         1 K26      -0.0582
     24 CAT       -21.3151   19.9192   -9.9123 C.3         1 K26      -0.0491
     25 CAA       -21.1539   18.4314  -10.3076 C.3         1 K26      -0.0648
     26 NAX       -20.3190   23.4266  -11.0629 N.am        1 K26      -0.2656
     27 CAZ       -20.9978   24.5619  -10.9312 C.2         1 K26       0.1751
     28 CAB       -20.7388   25.6373  -11.8622 C.3         1 K26       0.0258
     29 OAD       -21.8038   24.7519  -10.0283 O.2         1 K26      -0.3972
     30 CB        -16.3245   20.7996   -8.7751 C.3         1 K26       0.0163
     31 CG        -17.2321   20.5572   -7.6254 C.ar        1 K26      -0.0493
     32 CD1       -18.4080   19.7937   -7.7724 C.ar        1 K26      -0.0685
     33 CE1       -19.2916   19.5951   -6.6897 C.ar        1 K26      -0.0398
     34 CZ        -19.0114   20.1582   -5.4337 C.ar        1 K26       0.0805
     35 OH        -19.8841   20.0094   -4.4159 O.3         1 K26      -0.3376
     36 CE2       -17.8301   20.9042   -5.2663 C.ar        1 K26      -0.0398
     37 CD2       -16.9510   21.0950   -6.3519 C.ar        1 K26      -0.0685
     38 H1        -11.8195   26.1238  -11.8541 H           1 K26       0.0530
     39 H2         -9.7993   26.6821  -13.0325 H           1 K26       0.0525
     40 H3         -8.0729   24.5878  -14.8006 H           1 K26       0.2458
     41 H4        -10.2164   23.2517  -15.4291 H           1 K26       0.0525
     42 H5        -12.2419   22.6680  -14.2583 H           1 K26       0.0530
     43 H6        -14.1763   23.6230  -12.8566 H           1 K26       0.0442
     44 H7        -13.8057   24.7762  -11.5757 H           1 K26       0.0442
     45 H8        -13.0529   21.8329  -11.7005 H           1 K26       0.0771
     46 H9        -14.1669   22.5817   -9.3085 H           1 K26       0.1870
     47 H10       -16.4964   22.9802   -8.8912 H           1 K26       0.0821
     48 H11       -17.9908   22.1252  -11.0760 H           1 K26       0.1885
     49 H12       -21.1616   22.4718   -9.4342 H           1 K26       0.0803
     50 H13       -21.6254   21.2421  -11.5651 H           1 K26       0.0345
     51 H14       -20.1173   19.6594  -12.5586 H           1 K26       0.0235
     52 H15       -18.8804   19.9343  -11.3206 H           1 K26       0.0235
     53 H16       -19.2652   21.1995  -12.5102 H           1 K26       0.0235
     54 H17       -22.3887   20.0984   -9.7655 H           1 K26       0.0267
     55 H18       -20.8389   20.0570   -8.9446 H           1 K26       0.0267
     56 H19       -21.7113   17.8004   -9.6097 H           1 K26       0.0230
     57 H20       -20.0992   18.1403  -10.2601 H           1 K26       0.0230
     58 H21       -21.5309   18.2617  -11.3207 H           1 K26       0.0230
     59 H22       -19.6916   23.3799  -11.7958 H           1 K26       0.1883
     60 H23       -21.3301   26.5242  -11.6278 H           1 K26       0.0467
     61 H24       -20.9925   25.3093  -12.8729 H           1 K26       0.0467
     62 H25       -19.6817   25.9112  -11.8175 H           1 K26       0.0467
     63 H26       -15.3010   20.7942   -8.3893 H           1 K26       0.0453
     64 H27       -16.3926   19.9770   -9.4870 H           1 K26       0.0453
     65 H28       -18.6357   19.3775   -8.6788 H           1 K26       0.0530
     66 H29       -20.1505   19.0439   -6.8296 H           1 K26       0.0525
     67 H30       -19.4133   19.4433   -3.7410 H           1 K26       0.2458
     68 H31       -17.6041   21.3083   -4.3460 H           1 K26       0.0525
     69 H32       -16.0912   21.6231   -6.1961 H           1 K26       0.0530
@<TRIPOS>BOND
     1     1     2  ar
     2     1     7  ar
     3     2     3  ar
     4     3     4   1
     5     3     5  ar
     6     5     6  ar
     7     6     7  ar
     8     7     8   1
     9     8     9   1
    10     9    10   1
    11     9    14   1
    12    10    11  ar
    13    10    12  ar
    14    10    13  ar
    15    14    15  am
    16    15    16   2
    17    15    17   1
    18    17    18   1
    19    17    30   1
    20    18    19  am
    21    19    20   2
    22    19    21   1
    23    21    22   1
    24    21    26   1
    25    22    23   1
    26    22    24   1
    27    24    25   1
    28    26    27  am
    29    27    28   1
    30    27    29   2
    31    30    31   1
    32    31    32  ar
    33    31    37  ar
    34    32    33  ar
    35    33    34  ar
    36    34    35   1
    37    34    36  ar
    38    36    37  ar
    39     1    38   1
    40     2    39   1
    41     4    40   1
    42     5    41   1
    43     6    42   1
    44     8    43   1
    45     8    44   1
    46     9    45   1
    47    14    46   1
    48    17    47   1
    49    18    48   1
    50    21    49   1
    51    22    50   1
    52    23    51   1
    53    23    52   1
    54    23    53   1
    55    24    54   1
    56    24    55   1
    57    25    56   1
    58    25    57   1
    59    25    58   1
    60    26    59   1
    61    28    60   1
    62    28    61   1
    63    28    62   1
    64    30    63   1
    65    30    64   1
    66    32    65   1
    67    33    66   1
    68    35    67   1
    69    36    68   1
    70    37    69   1
@<TRIPOS>SUBSTRUCTURE
     1  K26      1

