@<TRIPOS>MOLECULE
2xhm_ligand_055
    69    70
SMALL
GAST_HUCK
****
This file was generated by PARSER (from files_GN.cpp)

@<TRIPOS>ATOM
      1 CAR       -11.3309   26.4413   -9.2140 C.ar        1 K26      -0.0686
      2 CAN        -9.9755   26.7980   -9.3218 C.ar        1 K26      -0.0398
      3 CBD        -9.4049   27.0315  -10.5879 C.ar        1 K26       0.0805
      4 OAI        -8.0912   27.3490  -10.7154 O.3         1 K26      -0.3376
      5 CAO       -10.1977   26.8910  -11.7423 C.ar        1 K26      -0.0398
      6 CAS       -11.5498   26.5051  -11.6352 C.ar        1 K26      -0.0686
      7 CBF       -12.1328   26.2649  -10.3695 C.ar        1 K26      -0.0501
      8 CAV       -13.5359   25.7739  -10.2403 C.3         1 K26       0.0145
      9 CBI       -13.7427   24.2449  -10.5087 C.3         1 K26       0.1207
     10 PBK       -12.6343   23.2339   -9.7757 P.3         1 K26       0.0863
     11 OAJ       -11.3084   23.4113  -10.3121 O.co2       1 K26      -0.5606
     12 OAK       -12.5742   23.4348   -8.3490 O.co2       1 K26      -0.5606
     13 OAG       -12.9731   21.8539  -10.0166 O.co2       1 K26      -0.5606
     14 NAY       -15.0568   23.8708  -10.0428 N.am        1 K26      -0.2653
     15 C         -15.9315   23.0565  -10.6265 C.2         1 K26       0.2049
     16 O         -15.6637   22.5058  -11.6895 O.2         1 K26      -0.3943
     17 CA        -17.2420   22.8159  -10.0112 C.3         1 K26       0.1389
     18 N         -17.0488   22.1762   -8.7237 N.am        1 K26      -0.2621
     19 CBB       -17.8636   21.3183   -8.1150 C.2         1 K26       0.2043
     20 OAF       -18.8939   20.9828   -8.6816 O.2         1 K26      -0.3944
     21 CBJ       -17.5997   20.8746   -6.7372 C.3         1 K26       0.1334
     22 CBG       -18.0399   19.3844   -6.4141 C.3         1 K26      -0.0037
     23 CAC       -17.5022   18.8700   -5.0445 C.3         1 K26      -0.0582
     24 CAT       -19.5634   19.0204   -6.5528 C.3         1 K26      -0.0491
     25 CAA       -20.5912   19.9565   -5.8815 C.3         1 K26      -0.0648
     26 NAX       -18.1549   21.8220   -5.8048 N.am        1 K26      -0.2656
     27 CAZ       -17.7969   22.0111   -4.5395 C.2         1 K26       0.1751
     28 CAB       -18.5787   22.9118   -3.7111 C.3         1 K26       0.0258
     29 OAD       -16.8326   21.4248   -4.0615 O.2         1 K26      -0.3972
     30 CB        -18.0661   24.1420   -9.8566 C.3         1 K26       0.0163
     31 CG        -19.5474   23.9605   -9.9376 C.ar        1 K26      -0.0493
     32 CD1       -20.2660   23.3774   -8.8676 C.ar        1 K26      -0.0685
     33 CE1       -21.6490   23.1249   -8.9796 C.ar        1 K26      -0.0398
     34 CZ        -22.3492   23.4843  -10.1485 C.ar        1 K26       0.0805
     35 OH        -23.6813   23.2304  -10.2326 O.3         1 K26      -0.3376
     36 CE2       -21.6584   24.1208  -11.1962 C.ar        1 K26      -0.0398
     37 CD2       -20.2704   24.3388  -11.0978 C.ar        1 K26      -0.0685
     38 H1        -11.7230   26.2701   -8.2839 H           1 K26       0.0530
     39 H2         -9.4081   26.8813   -8.4781 H           1 K26       0.0525
     40 H3         -7.6654   27.1089   -9.8594 H           1 K26       0.2458
     41 H4         -9.7836   27.0493  -12.6650 H           1 K26       0.0525
     42 H5        -12.0984   26.3905  -12.4908 H           1 K26       0.0530
     43 H6        -14.1599   26.3413  -10.9357 H           1 K26       0.0442
     44 H7        -13.9139   26.0105   -9.2414 H           1 K26       0.0442
     45 H8        -13.6574   24.0847  -11.5891 H           1 K26       0.0771
     46 H9        -15.3196   24.2176   -9.1771 H           1 K26       0.1870
     47 H10       -17.8034   22.1486  -10.6738 H           1 K26       0.0821
     48 H11       -16.2664   22.4596   -8.2239 H           1 K26       0.1885
     49 H12       -16.5096   20.8883   -6.6314 H           1 K26       0.0803
     50 H13       -17.5191   18.7727   -7.1609 H           1 K26       0.0345
     51 H14       -17.6017   17.7773   -5.0010 H           1 K26       0.0235
     52 H15       -18.0583   19.2967   -4.2094 H           1 K26       0.0235
     53 H16       -16.4461   19.0975   -4.9153 H           1 K26       0.0235
     54 H17       -19.7295   18.0193   -6.1339 H           1 K26       0.0267
     55 H18       -19.8237   18.9458   -7.6106 H           1 K26       0.0267
     56 H19       -21.5901   19.5096   -5.9406 H           1 K26       0.0230
     57 H20       -20.6199   20.9170   -6.4018 H           1 K26       0.0230
     58 H21       -20.3456   20.1141   -4.8295 H           1 K26       0.0230
     59 H22       -18.8938   22.3645   -6.1271 H           1 K26       0.1883
     60 H23       -18.2167   22.9354   -2.6813 H           1 K26       0.0467
     61 H24       -19.6178   22.5813   -3.6965 H           1 K26       0.0467
     62 H25       -18.5424   23.9267   -4.1087 H           1 K26       0.0467
     63 H26       -17.7704   24.8499  -10.6371 H           1 K26       0.0453
     64 H27       -17.8136   24.6224   -8.9059 H           1 K26       0.0453
     65 H28       -19.7845   23.1363   -7.9996 H           1 K26       0.0530
     66 H29       -22.1471   22.6780   -8.2100 H           1 K26       0.0525
     67 H30       -23.9214   23.2964  -11.1867 H           1 K26       0.2458
     68 H31       -22.1583   24.3968  -12.0460 H           1 K26       0.0525
     69 H32       -19.7883   24.7730  -11.8853 H           1 K26       0.0530
@<TRIPOS>BOND
     1     1     2  ar
     2     1     7  ar
     3     2     3  ar
     4     3     4   1
     5     3     5  ar
     6     5     6  ar
     7     6     7  ar
     8     7     8   1
     9     8     9   1
    10     9    10   1
    11     9    14   1
    12    10    11  ar
    13    10    12  ar
    14    10    13  ar
    15    14    15  am
    16    15    16   2
    17    15    17   1
    18    17    18   1
    19    17    30   1
    20    18    19  am
    21    19    20   2
    22    19    21   1
    23    21    22   1
    24    21    26   1
    25    22    23   1
    26    22    24   1
    27    24    25   1
    28    26    27  am
    29    27    28   1
    30    27    29   2
    31    30    31   1
    32    31    32  ar
    33    31    37  ar
    34    32    33  ar
    35    33    34  ar
    36    34    35   1
    37    34    36  ar
    38    36    37  ar
    39     1    38   1
    40     2    39   1
    41     4    40   1
    42     5    41   1
    43     6    42   1
    44     8    43   1
    45     8    44   1
    46     9    45   1
    47    14    46   1
    48    17    47   1
    49    18    48   1
    50    21    49   1
    51    22    50   1
    52    23    51   1
    53    23    52   1
    54    23    53   1
    55    24    54   1
    56    24    55   1
    57    25    56   1
    58    25    57   1
    59    25    58   1
    60    26    59   1
    61    28    60   1
    62    28    61   1
    63    28    62   1
    64    30    63   1
    65    30    64   1
    66    32    65   1
    67    33    66   1
    68    35    67   1
    69    36    68   1
    70    37    69   1
@<TRIPOS>SUBSTRUCTURE
     1  K26      1

