@<TRIPOS>MOLECULE
2xhm_ligand_061
    69    70
SMALL
GAST_HUCK
****
This file was generated by PARSER (from files_GN.cpp)

@<TRIPOS>ATOM
      1 CAR        -5.2781   26.8511  -14.5836 C.ar        1 K26      -0.0686
      2 CAN        -5.1776   28.2095  -14.2269 C.ar        1 K26      -0.0398
      3 CBD        -4.7066   28.5735  -12.9538 C.ar        1 K26       0.0805
      4 OAI        -4.6221   29.8769  -12.5963 O.3         1 K26      -0.3376
      5 CAO        -4.3304   27.5703  -12.0400 C.ar        1 K26      -0.0398
      6 CAS        -4.4128   26.2123  -12.4035 C.ar        1 K26      -0.0686
      7 CBF        -4.8968   25.8324  -13.6768 C.ar        1 K26      -0.0501
      8 CAV        -5.0066   24.4033  -14.0720 C.3         1 K26       0.0145
      9 CBI        -6.4759   23.8637  -14.0755 C.3         1 K26       0.1207
     10 PBK        -6.5712   22.2983  -14.6584 P.3         1 K26       0.0863
     11 OAJ        -5.5181   21.4636  -14.1303 O.co2       1 K26      -0.5606
     12 OAK        -7.8454   21.6846  -14.3646 O.co2       1 K26      -0.5606
     13 OAG        -6.4335   22.2961  -16.0940 O.co2       1 K26      -0.5606
     14 NAY        -7.0328   23.8816  -12.7506 N.am        1 K26      -0.2653
     15 C          -7.6004   24.9137  -12.1368 C.2         1 K26       0.2049
     16 O          -7.7423   25.9828  -12.7209 O.2         1 K26      -0.3943
     17 CA         -8.0377   24.8075  -10.7470 C.3         1 K26       0.1389
     18 N          -9.1812   23.9479  -10.6139 N.am        1 K26      -0.2621
     19 CBB       -10.4329   24.2654  -10.9231 C.2         1 K26       0.2043
     20 OAF       -10.6892   25.3458  -11.4303 O.2         1 K26      -0.3944
     21 CBJ       -11.5295   23.3767  -10.5062 C.3         1 K26       0.1334
     22 CBG       -12.9510   23.6722  -11.1144 C.3         1 K26      -0.0037
     23 CAC       -12.9777   23.4604  -12.6572 C.3         1 K26      -0.0582
     24 CAT       -14.1244   22.8887  -10.4341 C.3         1 K26      -0.0491
     25 CAA       -14.1037   21.3473  -10.5690 C.3         1 K26      -0.0648
     26 NAX       -11.6028   23.2281   -9.0701 N.am        1 K26      -0.2656
     27 CAZ       -11.1017   24.0103   -8.1197 C.2         1 K26       0.1751
     28 CAB       -11.3149   23.6324   -6.7410 C.3         1 K26       0.0258
     29 OAD       -10.4236   25.0091   -8.3536 O.2         1 K26      -0.3972
     30 CB         -6.8965   24.3163   -9.8042 C.3         1 K26       0.0163
     31 CG         -7.2605   24.3948   -8.3601 C.ar        1 K26      -0.0493
     32 CD1        -7.2837   25.6432   -7.6926 C.ar        1 K26      -0.0685
     33 CE1        -7.6268   25.7235   -6.3319 C.ar        1 K26      -0.0398
     34 CZ         -7.9398   24.5570   -5.6112 C.ar        1 K26       0.0805
     35 OH         -8.2558   24.6101   -4.2913 O.3         1 K26      -0.3376
     36 CE2        -7.9170   23.3105   -6.2625 C.ar        1 K26      -0.0398
     37 CD2        -7.5883   23.2319   -7.6271 C.ar        1 K26      -0.0685
     38 H1         -5.6216   26.6059  -15.5178 H           1 K26       0.0530
     39 H2         -5.4504   28.9299  -14.9019 H           1 K26       0.0525
     40 H3         -3.8786   30.2470  -13.1264 H           1 K26       0.2458
     41 H4         -3.9878   27.8295  -11.1098 H           1 K26       0.0525
     42 H5         -4.1273   25.5033  -11.7237 H           1 K26       0.0530
     43 H6         -4.4050   23.7813  -13.3957 H           1 K26       0.0442
     44 H7         -4.5483   24.3034  -15.0619 H           1 K26       0.0442
     45 H8         -7.0895   24.4664  -14.7464 H           1 K26       0.0771
     46 H9         -6.9525   23.0587  -12.2335 H           1 K26       0.1870
     47 H10        -8.3220   25.8114  -10.3932 H           1 K26       0.0821
     48 H11        -9.0433   23.1022  -10.1666 H           1 K26       0.1885
     49 H12       -11.2370   22.3835  -10.8596 H           1 K26       0.0803
     50 H13       -13.1651   24.7256  -10.9340 H           1 K26       0.0345
     51 H14       -13.9712   23.6592  -13.0558 H           1 K26       0.0235
     52 H15       -12.7020   22.4362  -12.9127 H           1 K26       0.0235
     53 H16       -12.2831   24.1307  -13.1557 H           1 K26       0.0235
     54 H17       -15.0758   23.2461  -10.8404 H           1 K26       0.0267
     55 H18       -14.1461   23.1306   -9.3633 H           1 K26       0.0267
     56 H19       -14.9397   20.9261  -10.0039 H           1 K26       0.0230
     57 H20       -13.1784   20.9287  -10.1748 H           1 K26       0.0230
     58 H21       -14.2152   21.0477  -11.6122 H           1 K26       0.0230
     59 H22       -12.1497   22.4966   -8.7363 H           1 K26       0.1883
     60 H23       -10.7345   24.2589   -6.0463 H           1 K26       0.0467
     61 H24       -11.0206   22.5854   -6.5863 H           1 K26       0.0467
     62 H25       -12.3782   23.7332   -6.4939 H           1 K26       0.0467
     63 H26        -5.9977   24.9194   -9.9655 H           1 K26       0.0453
     64 H27        -6.6331   23.2876  -10.0721 H           1 K26       0.0453
     65 H28        -7.0437   26.4997   -8.1987 H           1 K26       0.0530
     66 H29        -7.6374   26.6352   -5.8724 H           1 K26       0.0525
     67 H30        -8.2217   25.5615   -4.0389 H           1 K26       0.2458
     68 H31        -8.1404   22.4580   -5.7407 H           1 K26       0.0525
     69 H32        -7.5901   22.3166   -8.0805 H           1 K26       0.0530
@<TRIPOS>BOND
     1     1     2  ar
     2     1     7  ar
     3     2     3  ar
     4     3     4   1
     5     3     5  ar
     6     5     6  ar
     7     6     7  ar
     8     7     8   1
     9     8     9   1
    10     9    10   1
    11     9    14   1
    12    10    11  ar
    13    10    12  ar
    14    10    13  ar
    15    14    15  am
    16    15    16   2
    17    15    17   1
    18    17    18   1
    19    17    30   1
    20    18    19  am
    21    19    20   2
    22    19    21   1
    23    21    22   1
    24    21    26   1
    25    22    23   1
    26    22    24   1
    27    24    25   1
    28    26    27  am
    29    27    28   1
    30    27    29   2
    31    30    31   1
    32    31    32  ar
    33    31    37  ar
    34    32    33  ar
    35    33    34  ar
    36    34    35   1
    37    34    36  ar
    38    36    37  ar
    39     1    38   1
    40     2    39   1
    41     4    40   1
    42     5    41   1
    43     6    42   1
    44     8    43   1
    45     8    44   1
    46     9    45   1
    47    14    46   1
    48    17    47   1
    49    18    48   1
    50    21    49   1
    51    22    50   1
    52    23    51   1
    53    23    52   1
    54    23    53   1
    55    24    54   1
    56    24    55   1
    57    25    56   1
    58    25    57   1
    59    25    58   1
    60    26    59   1
    61    28    60   1
    62    28    61   1
    63    28    62   1
    64    30    63   1
    65    30    64   1
    66    32    65   1
    67    33    66   1
    68    35    67   1
    69    36    68   1
    70    37    69   1
@<TRIPOS>SUBSTRUCTURE
     1  K26      1

