@<TRIPOS>MOLECULE
2xhm_ligand_015
    69    70
SMALL
GAST_HUCK
****
This file was generated by PARSER (from files_GN.cpp)

@<TRIPOS>ATOM
      1 CAR       -11.5709   22.5158  -10.7391 C.ar        1 K26      -0.0686
      2 CAN       -12.5092   21.6282  -11.2956 C.ar        1 K26      -0.0398
      3 CBD       -13.8852   21.9213  -11.2164 C.ar        1 K26       0.0805
      4 OAI       -14.7920   21.1269  -11.8196 O.3         1 K26      -0.3376
      5 CAO       -14.3233   23.0763  -10.5472 C.ar        1 K26      -0.0398
      6 CAS       -13.3846   23.9659   -9.9947 C.ar        1 K26      -0.0686
      7 CBF       -11.9959   23.7190  -10.1281 C.ar        1 K26      -0.0501
      8 CAV       -10.9969   24.7406   -9.7127 C.3         1 K26       0.0145
      9 CBI       -10.1429   25.3339  -10.8805 C.3         1 K26       0.1207
     10 PBK       -11.0114   25.8440  -12.2186 P.3         1 K26       0.0863
     11 OAJ       -11.3288   24.7245  -13.0720 O.co2       1 K26      -0.5606
     12 OAK       -12.2525   26.4856  -11.8598 O.co2       1 K26      -0.5606
     13 OAG       -10.2612   26.7571  -13.0428 O.co2       1 K26      -0.5606
     14 NAY        -9.3931   26.4426  -10.3601 N.am        1 K26      -0.2653
     15 C          -8.2968   26.9916  -10.8762 C.2         1 K26       0.2049
     16 O          -7.7399   26.4996  -11.8540 O.2         1 K26      -0.3943
     17 CA         -7.7894   28.2185  -10.2720 C.3         1 K26       0.1389
     18 N          -7.3721   27.9771   -8.9194 N.am        1 K26      -0.2621
     19 CBB        -6.4767   27.0965   -8.4844 C.2         1 K26       0.2043
     20 OAF        -5.8582   26.3828   -9.2648 O.2         1 K26      -0.3944
     21 CBJ        -6.2297   26.9499   -7.0499 C.3         1 K26       0.1334
     22 CBG        -7.2742   26.0240   -6.3061 C.3         1 K26      -0.0037
     23 CAC        -7.8959   24.8966   -7.1889 C.3         1 K26      -0.0582
     24 CAT        -6.7057   25.3381   -5.0144 C.3         1 K26      -0.0491
     25 CAA        -5.5634   26.0638   -4.2703 C.3         1 K26      -0.0648
     26 NAX        -6.2070   28.2556   -6.4339 N.am        1 K26      -0.2656
     27 CAZ        -5.6114   29.3513   -6.8898 C.2         1 K26       0.1751
     28 CAB        -5.8195   30.5957   -6.1855 C.3         1 K26       0.0258
     29 OAD        -4.9148   29.3407   -7.8992 O.2         1 K26      -0.3972
     30 CB         -6.7384   28.9993  -11.1332 C.3         1 K26       0.0163
     31 CG         -6.3598   30.3378  -10.5976 C.ar        1 K26      -0.0493
     32 CD1        -7.3291   31.1756   -9.9908 C.ar        1 K26      -0.0685
     33 CE1        -6.9922   32.4583   -9.5298 C.ar        1 K26      -0.0398
     34 CZ         -5.6865   32.9575   -9.7119 C.ar        1 K26       0.0805
     35 OH         -5.3738   34.2211   -9.3273 O.3         1 K26      -0.3376
     36 CE2        -4.7148   32.1419  -10.3209 C.ar        1 K26      -0.0398
     37 CD2        -5.0433   30.8422  -10.7503 C.ar        1 K26      -0.0685
     38 H1        -10.5763   22.3039  -10.8259 H           1 K26       0.0530
     39 H2        -12.1949   20.7807  -11.7709 H           1 K26       0.0525
     40 H3        -14.7372   20.2877  -11.3263 H           1 K26       0.2458
     41 H4        -15.3214   23.2798  -10.4750 H           1 K26       0.0525
     42 H5        -13.7233   24.8213   -9.5458 H           1 K26       0.0530
     43 H6        -10.3241   24.2768   -8.9802 H           1 K26       0.0442
     44 H7        -11.4949   25.5622   -9.1873 H           1 K26       0.0442
     45 H8         -9.4503   24.5565  -11.2143 H           1 K26       0.0771
     46 H9         -9.7821   26.8987   -9.5944 H           1 K26       0.1870
     47 H10        -8.6547   28.8821  -10.1916 H           1 K26       0.0821
     48 H11        -7.7998   28.5166   -8.2379 H           1 K26       0.1885
     49 H12        -5.2392   26.5027   -6.9166 H           1 K26       0.0803
     50 H13        -8.1194   26.6511   -5.9956 H           1 K26       0.0345
     51 H14        -8.5781   24.2738   -6.6039 H           1 K26       0.0235
     52 H15        -7.1093   24.2559   -7.5994 H           1 K26       0.0235
     53 H16        -8.4690   25.3160   -8.0129 H           1 K26       0.0235
     54 H17        -6.3374   24.3403   -5.2675 H           1 K26       0.0267
     55 H18        -7.5274   25.2102   -4.3014 H           1 K26       0.0267
     56 H19        -5.3592   25.5597   -3.3238 H           1 K26       0.0230
     57 H20        -5.8340   27.0996   -4.0650 H           1 K26       0.0230
     58 H21        -4.6500   26.0363   -4.8671 H           1 K26       0.0230
     59 H22        -6.7082   28.3666   -5.6111 H           1 K26       0.1883
     60 H23        -5.3154   31.4336   -6.6785 H           1 K26       0.0467
     61 H24        -5.4339   30.5125   -5.1673 H           1 K26       0.0467
     62 H25        -6.8878   30.8206   -6.1348 H           1 K26       0.0467
     63 H26        -7.1574   29.1638  -12.1329 H           1 K26       0.0453
     64 H27        -5.8483   28.3738  -11.2621 H           1 K26       0.0453
     65 H28        -8.3000   30.8649   -9.8979 H           1 K26       0.0530
     66 H29        -7.7067   33.0350   -9.0873 H           1 K26       0.0525
     67 H30        -6.1701   34.7601   -9.5029 H           1 K26       0.2458
     68 H31        -3.7718   32.5029  -10.4677 H           1 K26       0.0525
     69 H32        -4.3218   30.2800  -11.2073 H           1 K26       0.0530
@<TRIPOS>BOND
     1     1     2  ar
     2     1     7  ar
     3     2     3  ar
     4     3     4   1
     5     3     5  ar
     6     5     6  ar
     7     6     7  ar
     8     7     8   1
     9     8     9   1
    10     9    10   1
    11     9    14   1
    12    10    11  ar
    13    10    12  ar
    14    10    13  ar
    15    14    15  am
    16    15    16   2
    17    15    17   1
    18    17    18   1
    19    17    30   1
    20    18    19  am
    21    19    20   2
    22    19    21   1
    23    21    22   1
    24    21    26   1
    25    22    23   1
    26    22    24   1
    27    24    25   1
    28    26    27  am
    29    27    28   1
    30    27    29   2
    31    30    31   1
    32    31    32  ar
    33    31    37  ar
    34    32    33  ar
    35    33    34  ar
    36    34    35   1
    37    34    36  ar
    38    36    37  ar
    39     1    38   1
    40     2    39   1
    41     4    40   1
    42     5    41   1
    43     6    42   1
    44     8    43   1
    45     8    44   1
    46     9    45   1
    47    14    46   1
    48    17    47   1
    49    18    48   1
    50    21    49   1
    51    22    50   1
    52    23    51   1
    53    23    52   1
    54    23    53   1
    55    24    54   1
    56    24    55   1
    57    25    56   1
    58    25    57   1
    59    25    58   1
    60    26    59   1
    61    28    60   1
    62    28    61   1
    63    28    62   1
    64    30    63   1
    65    30    64   1
    66    32    65   1
    67    33    66   1
    68    35    67   1
    69    36    68   1
    70    37    69   1
@<TRIPOS>SUBSTRUCTURE
     1  K26      1

