@<TRIPOS>MOLECULE
2xhm_ligand_036
    69    70
SMALL
GAST_HUCK
****
This file was generated by PARSER (from files_GN.cpp)

@<TRIPOS>ATOM
      1 CAR       -11.7618   23.5173   -9.7495 C.ar        1 K26      -0.0686
      2 CAN       -12.8281   22.7571  -10.2569 C.ar        1 K26      -0.0398
      3 CBD       -12.7797   22.2609  -11.5735 C.ar        1 K26       0.0805
      4 OAI       -13.8140   21.5302  -12.0571 O.3         1 K26      -0.3376
      5 CAO       -11.6564   22.5355  -12.3772 C.ar        1 K26      -0.0398
      6 CAS       -10.5839   23.2882  -11.8653 C.ar        1 K26      -0.0686
      7 CBF       -10.6251   23.8007  -10.5476 C.ar        1 K26      -0.0501
      8 CAV        -9.4808   24.5774   -9.9846 C.3         1 K26       0.0145
      9 CBI        -8.8259   25.6895  -10.8696 C.3         1 K26       0.1207
     10 PBK        -9.8434   26.9434  -11.3374 P.3         1 K26       0.0863
     11 OAJ       -11.1811   26.8493  -10.8088 O.co2       1 K26      -0.5606
     12 OAK        -9.3620   28.2518  -10.9719 O.co2       1 K26      -0.5606
     13 OAG        -9.9688   26.9831  -12.7740 O.co2       1 K26      -0.5606
     14 NAY        -7.7436   26.2546  -10.1032 N.am        1 K26      -0.2653
     15 C          -6.5059   26.5569  -10.4957 C.2         1 K26       0.2049
     16 O          -6.1534   26.3651  -11.6516 O.2         1 K26      -0.3943
     17 CA         -5.5662   27.1484   -9.5339 C.3         1 K26       0.1389
     18 N          -6.1599   28.3083   -8.9223 N.am        1 K26      -0.2621
     19 CBB        -5.6454   29.0708   -7.9623 C.2         1 K26       0.2043
     20 OAF        -4.5372   28.8346   -7.4905 O.2         1 K26      -0.3944
     21 CBJ        -6.3287   30.3011   -7.5732 C.3         1 K26       0.1334
     22 CBG        -6.1635   31.4374   -8.6579 C.3         1 K26      -0.0037
     23 CAC        -4.6881   31.6772   -9.1100 C.3         1 K26      -0.0582
     24 CAT        -7.0937   31.1991   -9.9004 C.3         1 K26      -0.0491
     25 CAA        -7.1534   32.3689  -10.9140 C.3         1 K26      -0.0648
     26 NAX        -6.0446   30.5926   -6.1851 N.am        1 K26      -0.2656
     27 CAZ        -5.3932   31.5895   -5.5982 C.2         1 K26       0.1751
     28 CAB        -5.3516   31.6170   -4.1539 C.3         1 K26       0.0258
     29 OAD        -4.8413   32.4954   -6.2066 O.2         1 K26      -0.3972
     30 CB         -5.0383   26.0913   -8.5075 C.3         1 K26       0.0163
     31 CG         -6.0918   25.3518   -7.7612 C.ar        1 K26      -0.0493
     32 CD1        -6.4971   24.0699   -8.1966 C.ar        1 K26      -0.0685
     33 CE1        -7.5173   23.3742   -7.5294 C.ar        1 K26      -0.0398
     34 CZ         -8.1496   23.9432   -6.4068 C.ar        1 K26       0.0805
     35 OH         -9.1367   23.2943   -5.7417 O.3         1 K26      -0.3376
     36 CE2        -7.7483   25.2171   -5.9617 C.ar        1 K26      -0.0398
     37 CD2        -6.7296   25.9173   -6.6319 C.ar        1 K26      -0.0685
     38 H1        -11.8213   23.8676   -8.7906 H           1 K26       0.0530
     39 H2        -13.6411   22.5688   -9.6669 H           1 K26       0.0525
     40 H3        -13.7061   20.6391  -11.6551 H           1 K26       0.2458
     41 H4        -11.6146   22.1791  -13.3362 H           1 K26       0.0525
     42 H5         -9.7700   23.4660  -12.4600 H           1 K26       0.0530
     43 H6         -8.7028   23.8484   -9.7420 H           1 K26       0.0442
     44 H7         -9.7870   25.0412   -9.0411 H           1 K26       0.0442
     45 H8         -8.4404   25.2121  -11.7735 H           1 K26       0.0771
     46 H9         -7.9597   26.4731   -9.1839 H           1 K26       0.1870
     47 H10        -4.6948   27.5071  -10.0957 H           1 K26       0.0821
     48 H11        -7.0165   28.5950   -9.2807 H           1 K26       0.1885
     49 H12        -7.3983   30.0682   -7.5241 H           1 K26       0.0803
     50 H13        -6.5320   32.3616   -8.2029 H           1 K26       0.0345
     51 H14        -4.5916   32.6464   -9.6057 H           1 K26       0.0235
     52 H15        -4.3639   30.8976   -9.8023 H           1 K26       0.0235
     53 H16        -4.0004   31.6674   -8.2643 H           1 K26       0.0235
     54 H17        -8.1158   31.0265   -9.5514 H           1 K26       0.0267
     55 H18        -6.7758   30.3060  -10.4433 H           1 K26       0.0267
     56 H19        -7.9436   32.1834  -11.6457 H           1 K26       0.0230
     57 H20        -6.2081   32.4638  -11.4518 H           1 K26       0.0230
     58 H21        -7.3675   33.3108  -10.4013 H           1 K26       0.0230
     59 H22        -6.4135   29.9466   -5.5604 H           1 K26       0.1883
     60 H23        -4.7229   32.4348   -3.7884 H           1 K26       0.0467
     61 H24        -4.9449   30.6778   -3.7704 H           1 K26       0.0467
     62 H25        -6.3629   31.7546   -3.7629 H           1 K26       0.0467
     63 H26        -4.3863   26.5710   -7.7763 H           1 K26       0.0453
     64 H27        -4.3934   25.3928   -9.0518 H           1 K26       0.0453
     65 H28        -6.0744   23.6446   -9.0282 H           1 K26       0.0530
     66 H29        -7.8101   22.4574   -7.8749 H           1 K26       0.0525
     67 H30        -8.8416   22.3633   -5.6570 H           1 K26       0.2458
     68 H31        -8.1866   25.6275   -5.1389 H           1 K26       0.0525
     69 H32        -6.4519   26.8369   -6.2863 H           1 K26       0.0530
@<TRIPOS>BOND
     1     1     2  ar
     2     1     7  ar
     3     2     3  ar
     4     3     4   1
     5     3     5  ar
     6     5     6  ar
     7     6     7  ar
     8     7     8   1
     9     8     9   1
    10     9    10   1
    11     9    14   1
    12    10    11  ar
    13    10    12  ar
    14    10    13  ar
    15    14    15  am
    16    15    16   2
    17    15    17   1
    18    17    18   1
    19    17    30   1
    20    18    19  am
    21    19    20   2
    22    19    21   1
    23    21    22   1
    24    21    26   1
    25    22    23   1
    26    22    24   1
    27    24    25   1
    28    26    27  am
    29    27    28   1
    30    27    29   2
    31    30    31   1
    32    31    32  ar
    33    31    37  ar
    34    32    33  ar
    35    33    34  ar
    36    34    35   1
    37    34    36  ar
    38    36    37  ar
    39     1    38   1
    40     2    39   1
    41     4    40   1
    42     5    41   1
    43     6    42   1
    44     8    43   1
    45     8    44   1
    46     9    45   1
    47    14    46   1
    48    17    47   1
    49    18    48   1
    50    21    49   1
    51    22    50   1
    52    23    51   1
    53    23    52   1
    54    23    53   1
    55    24    54   1
    56    24    55   1
    57    25    56   1
    58    25    57   1
    59    25    58   1
    60    26    59   1
    61    28    60   1
    62    28    61   1
    63    28    62   1
    64    30    63   1
    65    30    64   1
    66    32    65   1
    67    33    66   1
    68    35    67   1
    69    36    68   1
    70    37    69   1
@<TRIPOS>SUBSTRUCTURE
     1  K26      1

