@<TRIPOS>MOLECULE
2xhm_ligand_035
    69    70
SMALL
GAST_HUCK
****
This file was generated by PARSER (from files_GN.cpp)

@<TRIPOS>ATOM
      1 CAR       -21.7696   21.1954  -11.6916 C.ar        1 K26      -0.0686
      2 CAN       -22.7230   20.6133  -12.5487 C.ar        1 K26      -0.0398
      3 CBD       -24.0627   21.0326  -12.4983 C.ar        1 K26       0.0805
      4 OAI       -24.9765   20.4727  -13.3248 O.3         1 K26      -0.3376
      5 CAO       -24.4350   22.0519  -11.5975 C.ar        1 K26      -0.0398
      6 CAS       -23.4814   22.6373  -10.7489 C.ar        1 K26      -0.0686
      7 CBF       -22.1347   22.2085  -10.7741 C.ar        1 K26      -0.0501
      8 CAV       -21.1446   22.7076   -9.7809 C.3         1 K26       0.0145
      9 CBI       -19.8593   23.4112  -10.3619 C.3         1 K26       0.1207
     10 PBK       -19.8651   25.0725  -10.1928 P.3         1 K26       0.0863
     11 OAJ       -20.4492   25.5278   -8.9520 O.co2       1 K26      -0.5606
     12 OAK       -18.5313   25.6217  -10.2933 O.co2       1 K26      -0.5606
     13 OAG       -20.6151   25.6778  -11.2711 O.co2       1 K26      -0.5606
     14 NAY       -18.6587   22.8648   -9.7668 N.am        1 K26      -0.2653
     15 C         -18.0195   21.7859  -10.2044 C.2         1 K26       0.2049
     16 O         -18.3953   21.2278  -11.2350 O.2         1 K26      -0.3943
     17 CA        -16.8811   21.1934   -9.4977 C.3         1 K26       0.1389
     18 N         -15.6521   21.9285   -9.6898 N.am        1 K26      -0.2621
     19 CBB       -15.1272   22.3512  -10.8336 C.2         1 K26       0.2043
     20 OAF       -15.7211   22.1789  -11.8912 O.2         1 K26      -0.3944
     21 CBJ       -13.8333   23.0346  -10.8705 C.3         1 K26       0.1334
     22 CBG       -12.6428   21.9987  -10.8105 C.3         1 K26      -0.0037
     23 CAC       -12.5751   21.1143  -12.0877 C.3         1 K26      -0.0582
     24 CAT       -11.2238   22.6011  -10.5073 C.3         1 K26      -0.0491
     25 CAA       -10.7237   23.7138  -11.4626 C.3         1 K26      -0.0648
     26 NAX       -13.6674   24.0740   -9.8803 N.am        1 K26      -0.2656
     27 CAZ       -14.5736   24.7726   -9.2024 C.2         1 K26       0.1751
     28 CAB       -14.0852   25.8316   -8.3462 C.3         1 K26       0.0258
     29 OAD       -15.7758   24.5350   -9.2664 O.2         1 K26      -0.3972
     30 CB        -17.1447   20.9430   -7.9705 C.3         1 K26       0.0163
     31 CG        -18.5575   20.7435   -7.5345 C.ar        1 K26      -0.0493
     32 CD1       -19.4095   19.8260   -8.1968 C.ar        1 K26      -0.0685
     33 CE1       -20.7584   19.6675   -7.8002 C.ar        1 K26      -0.0398
     34 CZ        -21.2765   20.4117   -6.7205 C.ar        1 K26       0.0805
     35 OH        -22.5548   20.2908   -6.3084 O.3         1 K26      -0.3376
     36 CE2       -20.4391   21.3320   -6.0647 C.ar        1 K26      -0.0398
     37 CD2       -19.0992   21.4891   -6.4591 C.ar        1 K26      -0.0685
     38 H1        -20.8065   20.8467  -11.7303 H           1 K26       0.0530
     39 H2        -22.4397   19.8744  -13.1949 H           1 K26       0.0525
     40 H3        -25.7156   20.1694  -12.7435 H           1 K26       0.2458
     41 H4        -25.4168   22.3626  -11.5546 H           1 K26       0.0525
     42 H5        -23.7771   23.3660  -10.0995 H           1 K26       0.0530
     43 H6        -20.8399   21.8302   -9.1974 H           1 K26       0.0442
     44 H7        -21.6400   23.3609   -9.0510 H           1 K26       0.0442
     45 H8        -19.8051   23.2357  -11.4424 H           1 K26       0.0771
     46 H9        -18.3445   23.2732   -8.9418 H           1 K26       0.1870
     47 H10       -16.7020   20.2045   -9.9350 H           1 K26       0.0821
     48 H11       -15.1277   22.0997   -8.8917 H           1 K26       0.1885
     49 H12       -13.7640   23.5568  -11.8231 H           1 K26       0.0803
     50 H13       -12.8412   21.3164   -9.9830 H           1 K26       0.0345
     51 H14       -11.7646   20.3855  -12.0227 H           1 K26       0.0235
     52 H15       -12.4222   21.7373  -12.9778 H           1 K26       0.0235
     53 H16       -13.5081   20.5602  -12.2092 H           1 K26       0.0235
     54 H17       -10.4785   21.7974  -10.5207 H           1 K26       0.0267
     55 H18       -11.2115   23.0012   -9.4857 H           1 K26       0.0267
     56 H19        -9.7419   24.0696  -11.1197 H           1 K26       0.0230
     57 H20       -11.4193   24.5617  -11.4690 H           1 K26       0.0230
     58 H21       -10.6178   23.3240  -12.4788 H           1 K26       0.0230
     59 H22       -12.7512   24.3770   -9.7384 H           1 K26       0.1883
     60 H23       -14.8734   26.2430   -7.7099 H           1 K26       0.0467
     61 H24       -13.6835   26.6371   -8.9670 H           1 K26       0.0467
     62 H25       -13.2961   25.4428   -7.6991 H           1 K26       0.0467
     63 H26       -16.7139   21.7701   -7.4028 H           1 K26       0.0453
     64 H27       -16.5846   20.0566   -7.6615 H           1 K26       0.0453
     65 H28       -19.0699   19.2977   -9.0063 H           1 K26       0.0530
     66 H29       -21.3698   19.0264   -8.3143 H           1 K26       0.0525
     67 H30       -22.7998   19.3340   -6.3373 H           1 K26       0.2458
     68 H31       -20.8009   21.8929   -5.2857 H           1 K26       0.0525
     69 H32       -18.5164   22.1700   -5.9594 H           1 K26       0.0530
@<TRIPOS>BOND
     1     1     2  ar
     2     1     7  ar
     3     2     3  ar
     4     3     4   1
     5     3     5  ar
     6     5     6  ar
     7     6     7  ar
     8     7     8   1
     9     8     9   1
    10     9    10   1
    11     9    14   1
    12    10    11  ar
    13    10    12  ar
    14    10    13  ar
    15    14    15  am
    16    15    16   2
    17    15    17   1
    18    17    18   1
    19    17    30   1
    20    18    19  am
    21    19    20   2
    22    19    21   1
    23    21    22   1
    24    21    26   1
    25    22    23   1
    26    22    24   1
    27    24    25   1
    28    26    27  am
    29    27    28   1
    30    27    29   2
    31    30    31   1
    32    31    32  ar
    33    31    37  ar
    34    32    33  ar
    35    33    34  ar
    36    34    35   1
    37    34    36  ar
    38    36    37  ar
    39     1    38   1
    40     2    39   1
    41     4    40   1
    42     5    41   1
    43     6    42   1
    44     8    43   1
    45     8    44   1
    46     9    45   1
    47    14    46   1
    48    17    47   1
    49    18    48   1
    50    21    49   1
    51    22    50   1
    52    23    51   1
    53    23    52   1
    54    23    53   1
    55    24    54   1
    56    24    55   1
    57    25    56   1
    58    25    57   1
    59    25    58   1
    60    26    59   1
    61    28    60   1
    62    28    61   1
    63    28    62   1
    64    30    63   1
    65    30    64   1
    66    32    65   1
    67    33    66   1
    68    35    67   1
    69    36    68   1
    70    37    69   1
@<TRIPOS>SUBSTRUCTURE
     1  K26      1

