@<TRIPOS>MOLECULE
2xhm_ligand_039
    69    70
SMALL
GAST_HUCK
****
This file was generated by PARSER (from files_GN.cpp)

@<TRIPOS>ATOM
      1 CAR        -5.6723   23.6303  -16.3581 C.ar        1 K26      -0.0686
      2 CAN        -4.7053   22.7537  -16.8934 C.ar        1 K26      -0.0398
      3 CBD        -4.6185   22.5565  -18.2882 C.ar        1 K26       0.0805
      4 OAI        -3.6404   21.7864  -18.8299 O.3         1 K26      -0.3376
      5 CAO        -5.5056   23.2411  -19.1397 C.ar        1 K26      -0.0398
      6 CAS        -6.4675   24.1175  -18.6074 C.ar        1 K26      -0.0686
      7 CBF        -6.5795   24.3109  -17.2066 C.ar        1 K26      -0.0501
      8 CAV        -7.6029   25.2437  -16.6587 C.3         1 K26       0.0145
      9 CBI        -8.8933   24.6189  -16.0173 C.3         1 K26       0.1207
     10 PBK        -9.4216   23.1676  -16.6572 P.3         1 K26       0.0863
     11 OAJ        -9.0239   23.0556  -18.0417 O.co2       1 K26      -0.5606
     12 OAK        -8.8856   22.0296  -15.9454 O.co2       1 K26      -0.5606
     13 OAG       -10.8608   23.0831  -16.6097 O.co2       1 K26      -0.5606
     14 NAY        -8.7960   24.5052  -14.5847 N.am        1 K26      -0.2653
     15 C          -9.0511   25.4847  -13.7144 C.2         1 K26       0.2049
     16 O          -9.4769   26.5663  -14.1100 O.2         1 K26      -0.3943
     17 CA         -9.0476   25.2482  -12.2763 C.3         1 K26       0.1389
     18 N         -10.3498   24.8071  -11.8565 N.am        1 K26      -0.2621
     19 CBB       -11.4843   25.5006  -11.9383 C.2         1 K26       0.2043
     20 OAF       -11.4817   26.5906  -12.5017 O.2         1 K26      -0.3944
     21 CBJ       -12.7377   25.0298  -11.3440 C.3         1 K26       0.1334
     22 CBG       -13.1012   25.8246  -10.0360 C.3         1 K26      -0.0037
     23 CAC       -14.0874   25.0416   -9.1187 C.3         1 K26      -0.0582
     24 CAT       -11.9118   26.4126   -9.2042 C.3         1 K26      -0.0491
     25 CAA       -11.1122   25.4237   -8.3132 C.3         1 K26      -0.0648
     26 NAX       -12.7501   23.6049  -11.1318 N.am        1 K26      -0.2656
     27 CAZ       -13.6188   22.7300  -11.6286 C.2         1 K26       0.1751
     28 CAB       -13.4036   21.3292  -11.3615 C.3         1 K26       0.0258
     29 OAD       -14.6065   23.0754  -12.2707 O.2         1 K26      -0.3972
     30 CB         -7.9419   24.2394  -11.8268 C.3         1 K26       0.0163
     31 CG         -7.5996   24.3171  -10.3713 C.ar        1 K26      -0.0493
     32 CD1        -7.8616   23.2368   -9.4903 C.ar        1 K26      -0.0685
     33 CE1        -7.4680   23.2947   -8.1394 C.ar        1 K26      -0.0398
     34 CZ         -6.7937   24.4279   -7.6456 C.ar        1 K26       0.0805
     35 OH         -6.3759   24.4782   -6.3582 O.3         1 K26      -0.3376
     36 CE2        -6.5240   25.5054   -8.5084 C.ar        1 K26      -0.0398
     37 CD2        -6.9277   25.4507   -9.8562 C.ar        1 K26      -0.0685
     38 H1         -5.7207   23.7592  -15.3439 H           1 K26       0.0530
     39 H2         -4.0476   22.2778  -16.2699 H           1 K26       0.0525
     40 H3         -3.9041   20.8555  -18.6649 H           1 K26       0.2458
     41 H4         -5.4470   23.1077  -20.1526 H           1 K26       0.0525
     42 H5         -7.1048   24.5916  -19.2522 H           1 K26       0.0530
     43 H6         -7.9344   25.9245  -17.4526 H           1 K26       0.0442
     44 H7         -7.0984   25.8839  -15.9231 H           1 K26       0.0442
     45 H8         -9.7196   25.3113  -16.2261 H           1 K26       0.0771
     46 H9         -8.5711   23.6309  -14.2264 H           1 K26       0.1870
     47 H10        -8.8235   26.1953  -11.7688 H           1 K26       0.0821
     48 H11       -10.3815   23.9518  -11.3996 H           1 K26       0.1885
     49 H12       -13.5139   25.2824  -12.0703 H           1 K26       0.0803
     50 H13       -13.6717   26.7067  -10.3590 H           1 K26       0.0345
     51 H14       -14.4284   25.6691   -8.2864 H           1 K26       0.0235
     52 H15       -13.6146   24.1531   -8.6984 H           1 K26       0.0235
     53 H16       -14.9669   24.7215   -9.6845 H           1 K26       0.0235
     54 H17       -12.3027   27.2079   -8.5527 H           1 K26       0.0267
     55 H18       -11.2121   26.8901   -9.8963 H           1 K26       0.0267
     56 H19       -10.2680   25.9608   -7.8624 H           1 K26       0.0230
     57 H20       -10.7161   24.5926   -8.9070 H           1 K26       0.0230
     58 H21       -11.7426   25.0276   -7.5085 H           1 K26       0.0230
     59 H22       -12.0362   23.2442  -10.5840 H           1 K26       0.1883
     60 H23       -14.1847   20.7194  -11.8252 H           1 K26       0.0467
     61 H24       -13.4118   21.1492  -10.2806 H           1 K26       0.0467
     62 H25       -12.4362   21.0194  -11.7688 H           1 K26       0.0467
     63 H26        -7.0195   24.4220  -12.3865 H           1 K26       0.0453
     64 H27        -8.2613   23.2225  -12.0801 H           1 K26       0.0453
     65 H28        -8.3422   22.3966   -9.8257 H           1 K26       0.0530
     66 H29        -7.6465   22.5038   -7.5196 H           1 K26       0.0525
     67 H30        -7.1789   24.7286   -5.8355 H           1 K26       0.2458
     68 H31        -6.0209   26.3263   -8.1597 H           1 K26       0.0525
     69 H32        -6.7085   26.2416  -10.4672 H           1 K26       0.0530
@<TRIPOS>BOND
     1     1     2  ar
     2     1     7  ar
     3     2     3  ar
     4     3     4   1
     5     3     5  ar
     6     5     6  ar
     7     6     7  ar
     8     7     8   1
     9     8     9   1
    10     9    10   1
    11     9    14   1
    12    10    11  ar
    13    10    12  ar
    14    10    13  ar
    15    14    15  am
    16    15    16   2
    17    15    17   1
    18    17    18   1
    19    17    30   1
    20    18    19  am
    21    19    20   2
    22    19    21   1
    23    21    22   1
    24    21    26   1
    25    22    23   1
    26    22    24   1
    27    24    25   1
    28    26    27  am
    29    27    28   1
    30    27    29   2
    31    30    31   1
    32    31    32  ar
    33    31    37  ar
    34    32    33  ar
    35    33    34  ar
    36    34    35   1
    37    34    36  ar
    38    36    37  ar
    39     1    38   1
    40     2    39   1
    41     4    40   1
    42     5    41   1
    43     6    42   1
    44     8    43   1
    45     8    44   1
    46     9    45   1
    47    14    46   1
    48    17    47   1
    49    18    48   1
    50    21    49   1
    51    22    50   1
    52    23    51   1
    53    23    52   1
    54    23    53   1
    55    24    54   1
    56    24    55   1
    57    25    56   1
    58    25    57   1
    59    25    58   1
    60    26    59   1
    61    28    60   1
    62    28    61   1
    63    28    62   1
    64    30    63   1
    65    30    64   1
    66    32    65   1
    67    33    66   1
    68    35    67   1
    69    36    68   1
    70    37    69   1
@<TRIPOS>SUBSTRUCTURE
     1  K26      1

