@<TRIPOS>MOLECULE
2xhm_ligand_010
    69    70
SMALL
GAST_HUCK
****
This file was generated by PARSER (from files_GN.cpp)

@<TRIPOS>ATOM
      1 CAR       -21.6390   22.0747   -8.2306 C.ar        1 K26      -0.0686
      2 CAN       -22.5703   21.4369   -9.0681 C.ar        1 K26      -0.0398
      3 CBD       -22.8689   20.0756   -8.8817 C.ar        1 K26       0.0805
      4 OAI       -23.8288   19.4952   -9.6364 O.3         1 K26      -0.3376
      5 CAO       -22.2349   19.3573   -7.8505 C.ar        1 K26      -0.0398
      6 CAS       -21.3127   20.0000   -7.0056 C.ar        1 K26      -0.0686
      7 CBF       -20.9954   21.3678   -7.1829 C.ar        1 K26      -0.0501
      8 CAV       -20.0964   22.0766   -6.2304 C.3         1 K26       0.0145
      9 CBI       -18.5760   21.6956   -6.2783 C.3         1 K26       0.1207
     10 PBK       -18.2098   20.2244   -5.5726 P.3         1 K26       0.0863
     11 OAJ       -19.1706   19.8081   -4.5758 O.co2       1 K26      -0.5606
     12 OAK       -18.1043   19.1459   -6.5256 O.co2       1 K26      -0.5606
     13 OAG       -16.9490   20.2873   -4.8643 O.co2       1 K26      -0.5606
     14 NAY       -17.9926   21.7225   -7.5995 N.am        1 K26      -0.2653
     15 C         -18.0818   22.6765   -8.5186 C.2         1 K26       0.2049
     16 O         -18.6950   23.7142   -8.2923 O.2         1 K26      -0.3943
     17 CA        -17.4393   22.5023   -9.8279 C.3         1 K26       0.1389
     18 N         -15.9982   22.4626   -9.7027 N.am        1 K26      -0.2621
     19 CBB       -15.1637   22.3219  -10.7342 C.2         1 K26       0.2043
     20 OAF       -15.6268   22.0791  -11.8443 O.2         1 K26      -0.3944
     21 CBJ       -13.7134   22.4996  -10.5715 C.3         1 K26       0.1334
     22 CBG       -13.3201   23.6888   -9.6207 C.3         1 K26      -0.0037
     23 CAC       -11.7981   23.6554   -9.2939 C.3         1 K26      -0.0582
     24 CAT       -13.7743   25.0818  -10.1731 C.3         1 K26      -0.0491
     25 CAA       -13.0816   26.3096   -9.5377 C.3         1 K26      -0.0648
     26 NAX       -13.0602   22.6907  -11.8449 N.am        1 K26      -0.2656
     27 CAZ       -11.8345   22.3243  -12.1944 C.2         1 K26       0.1751
     28 CAB       -11.3271   22.7211  -13.4821 C.3         1 K26       0.0258
     29 OAD       -11.1019   21.7177  -11.4182 O.2         1 K26      -0.3972
     30 CB        -17.9836   21.2561  -10.6170 C.3         1 K26       0.0163
     31 CG        -19.3319   21.3038  -11.2673 C.ar        1 K26      -0.0493
     32 CD1       -19.9200   20.0788  -11.6780 C.ar        1 K26      -0.0685
     33 CE1       -21.1062   20.0517  -12.4327 C.ar        1 K26      -0.0398
     34 CZ        -21.7365   21.2510  -12.8000 C.ar        1 K26       0.0805
     35 OH        -22.8585   21.2454  -13.5546 O.3         1 K26      -0.3376
     36 CE2       -21.1745   22.4794  -12.4050 C.ar        1 K26      -0.0398
     37 CD2       -19.9852   22.5055  -11.6530 C.ar        1 K26      -0.0685
     38 H1        -21.4528   23.0714   -8.3768 H           1 K26       0.0530
     39 H2        -23.0428   21.9702   -9.7996 H           1 K26       0.0525
     40 H3        -23.3788   18.7835  -10.1484 H           1 K26       0.2458
     41 H4        -22.4736   18.3730   -7.6868 H           1 K26       0.0525
     42 H5        -20.9084   19.4677   -6.2368 H           1 K26       0.0530
     43 H6        -20.4919   21.9393   -5.2216 H           1 K26       0.0442
     44 H7        -20.1617   23.1531   -6.4053 H           1 K26       0.0442
     45 H8        -18.0554   22.4493   -5.6742 H           1 K26       0.0771
     46 H9        -17.4764   20.9397   -7.8517 H           1 K26       0.1870
     47 H10       -17.6435   23.4086  -10.4147 H           1 K26       0.0821
     48 H11       -15.6215   22.6553   -8.8335 H           1 K26       0.1885
     49 H12       -13.3664   21.5651  -10.1096 H           1 K26       0.0803
     50 H13       -13.8363   23.5359   -8.6698 H           1 K26       0.0345
     51 H14       -11.5695   24.3103   -8.4514 H           1 K26       0.0235
     52 H15       -11.2077   23.9823  -10.1541 H           1 K26       0.0235
     53 H16       -11.4846   22.6480   -9.0187 H           1 K26       0.0235
     54 H17       -14.8515   25.1850  -10.0010 H           1 K26       0.0267
     55 H18       -13.6067   25.1294  -11.2534 H           1 K26       0.0267
     56 H19       -13.5729   27.2237   -9.8711 H           1 K26       0.0230
     57 H20       -12.0357   26.3598   -9.8470 H           1 K26       0.0230
     58 H21       -13.1328   26.2579   -8.4463 H           1 K26       0.0230
     59 H22       -13.5416   23.2370  -12.4923 H           1 K26       0.1883
     60 H23       -10.2703   22.4568  -13.5977 H           1 K26       0.0467
     61 H24       -11.4234   23.8057  -13.6119 H           1 K26       0.0467
     62 H25       -11.8951   22.2227  -14.2723 H           1 K26       0.0467
     63 H26       -17.9381   20.3839   -9.9544 H           1 K26       0.0453
     64 H27       -17.2882   21.0391  -11.4297 H           1 K26       0.0453
     65 H28       -19.4684   19.1877  -11.4492 H           1 K26       0.0530
     66 H29       -21.5016   19.1535  -12.7300 H           1 K26       0.0525
     67 H30       -22.5662   20.9454  -14.4433 H           1 K26       0.2458
     68 H31       -21.6092   23.3592  -12.6950 H           1 K26       0.0525
     69 H32       -19.5887   23.4160  -11.4285 H           1 K26       0.0530
@<TRIPOS>BOND
     1     1     2  ar
     2     1     7  ar
     3     2     3  ar
     4     3     4   1
     5     3     5  ar
     6     5     6  ar
     7     6     7  ar
     8     7     8   1
     9     8     9   1
    10     9    10   1
    11     9    14   1
    12    10    11  ar
    13    10    12  ar
    14    10    13  ar
    15    14    15  am
    16    15    16   2
    17    15    17   1
    18    17    18   1
    19    17    30   1
    20    18    19  am
    21    19    20   2
    22    19    21   1
    23    21    22   1
    24    21    26   1
    25    22    23   1
    26    22    24   1
    27    24    25   1
    28    26    27  am
    29    27    28   1
    30    27    29   2
    31    30    31   1
    32    31    32  ar
    33    31    37  ar
    34    32    33  ar
    35    33    34  ar
    36    34    35   1
    37    34    36  ar
    38    36    37  ar
    39     1    38   1
    40     2    39   1
    41     4    40   1
    42     5    41   1
    43     6    42   1
    44     8    43   1
    45     8    44   1
    46     9    45   1
    47    14    46   1
    48    17    47   1
    49    18    48   1
    50    21    49   1
    51    22    50   1
    52    23    51   1
    53    23    52   1
    54    23    53   1
    55    24    54   1
    56    24    55   1
    57    25    56   1
    58    25    57   1
    59    25    58   1
    60    26    59   1
    61    28    60   1
    62    28    61   1
    63    28    62   1
    64    30    63   1
    65    30    64   1
    66    32    65   1
    67    33    66   1
    68    35    67   1
    69    36    68   1
    70    37    69   1
@<TRIPOS>SUBSTRUCTURE
     1  K26      1

