@<TRIPOS>MOLECULE
2xhm_ligand_047
    69    70
SMALL
GAST_HUCK
****
This file was generated by PARSER (from files_GN.cpp)

@<TRIPOS>ATOM
      1 CAR        -2.9097   25.8489   -9.4742 C.ar        1 K26      -0.0686
      2 CAN        -1.9726   26.7863   -9.0020 C.ar        1 K26      -0.0398
      3 CBD        -0.6474   26.7641   -9.4785 C.ar        1 K26       0.0805
      4 OAI         0.2817   27.6214   -8.9932 O.3         1 K26      -0.3376
      5 CAO        -0.2707   25.8254  -10.4558 C.ar        1 K26      -0.0398
      6 CAS        -1.2039   24.8827  -10.9235 C.ar        1 K26      -0.0686
      7 CBF        -2.5263   24.8681  -10.4206 C.ar        1 K26      -0.0501
      8 CAV        -3.5096   23.8543  -10.8907 C.3         1 K26       0.0145
      9 CBI        -4.3875   24.3479  -12.1036 C.3         1 K26       0.1207
     10 PBK        -4.1733   23.4606  -13.5038 P.3         1 K26       0.0863
     11 OAJ        -5.2316   23.7270  -14.4508 O.co2       1 K26      -0.5606
     12 OAK        -2.9514   23.8266  -14.1818 O.co2       1 K26      -0.5606
     13 OAG        -4.1332   22.0284  -13.2922 O.co2       1 K26      -0.5606
     14 NAY        -5.7846   24.5231  -11.7677 N.am        1 K26      -0.2653
     15 C          -6.6127   23.6708  -11.1695 C.2         1 K26       0.2049
     16 O          -6.1974   22.5696  -10.8321 O.2         1 K26      -0.3943
     17 CA         -8.0075   24.0670  -10.9201 C.3         1 K26       0.1389
     18 N          -8.6842   24.6187  -12.0668 N.am        1 K26      -0.2621
     19 CBB        -8.5230   24.3580  -13.3696 C.2         1 K26       0.2043
     20 OAF        -7.6285   23.6060  -13.7280 O.2         1 K26      -0.3944
     21 CBJ        -9.4813   24.8028  -14.3950 C.3         1 K26       0.1334
     22 CBG        -9.0273   25.9889  -15.3344 C.3         1 K26      -0.0037
     23 CAC        -7.5662   25.9026  -15.8621 C.3         1 K26      -0.0582
     24 CAT       -10.0493   26.2464  -16.5034 C.3         1 K26      -0.0491
     25 CAA        -9.7487   25.5733  -17.8689 C.3         1 K26      -0.0648
     26 NAX       -10.7129   25.1997  -13.7610 N.am        1 K26      -0.2656
     27 CAZ       -11.8491   24.5239  -13.6863 C.2         1 K26       0.1751
     28 CAB       -12.8612   25.0020  -12.7735 C.3         1 K26       0.0258
     29 OAD       -12.0349   23.4880  -14.3092 O.2         1 K26      -0.3972
     30 CB         -8.9015   23.0421  -10.1116 C.3         1 K26       0.0163
     31 CG        -10.2573   22.6977  -10.6322 C.ar        1 K26      -0.0493
     32 CD1       -10.3960   22.1066  -11.9139 C.ar        1 K26      -0.0685
     33 CE1       -11.6502   21.6802  -12.3837 C.ar        1 K26      -0.0398
     34 CZ        -12.7981   21.8160  -11.5743 C.ar        1 K26       0.0805
     35 OH        -13.9993   21.3729  -12.0252 O.3         1 K26      -0.3376
     36 CE2       -12.6738   22.3849  -10.2955 C.ar        1 K26      -0.0398
     37 CD2       -11.4187   22.8229   -9.8302 C.ar        1 K26      -0.0685
     38 H1         -3.8683   25.8751   -9.1193 H           1 K26       0.0530
     39 H2         -2.2573   27.4763   -8.3059 H           1 K26       0.0525
     40 H3          0.1792   27.6013   -8.0172 H           1 K26       0.2458
     41 H4          0.6852   25.8136  -10.8179 H           1 K26       0.0525
     42 H5         -0.9166   24.2061  -11.6332 H           1 K26       0.0530
     43 H6         -4.1423   23.5939  -10.0375 H           1 K26       0.0442
     44 H7         -2.9817   22.9244  -11.1344 H           1 K26       0.0442
     45 H8         -4.0502   25.3541  -12.3735 H           1 K26       0.0771
     46 H9         -6.1543   25.3970  -11.9843 H           1 K26       0.1870
     47 H10        -7.9166   24.9366  -10.2614 H           1 K26       0.0821
     48 H11        -9.4344   25.1848  -11.8450 H           1 K26       0.1885
     49 H12        -9.6641   23.9287  -15.0332 H           1 K26       0.0803
     50 H13        -9.0342   26.9000  -14.7219 H           1 K26       0.0345
     51 H14        -7.3520   26.7312  -16.5450 H           1 K26       0.0235
     52 H15        -7.3863   24.9574  -16.3790 H           1 K26       0.0235
     53 H16        -6.8662   25.9792  -15.0321 H           1 K26       0.0235
     54 H17       -10.1113   27.3226  -16.6822 H           1 K26       0.0267
     55 H18       -11.0473   25.9232  -16.1945 H           1 K26       0.0267
     56 H19       -10.5972   25.7015  -18.5448 H           1 K26       0.0230
     57 H20        -9.5675   24.5076  -17.7517 H           1 K26       0.0230
     58 H21        -8.8738   26.0331  -18.3372 H           1 K26       0.0230
     59 H22       -10.6714   26.0065  -13.2247 H           1 K26       0.1883
     60 H23       -13.6826   24.2894  -12.6742 H           1 K26       0.0467
     61 H24       -13.2668   25.9468  -13.1335 H           1 K26       0.0467
     62 H25       -12.4287   25.1608  -11.7817 H           1 K26       0.0467
     63 H26        -8.9976   23.4203   -9.0914 H           1 K26       0.0453
     64 H27        -8.4007   22.0836   -9.9933 H           1 K26       0.0453
     65 H28        -9.5777   21.9573  -12.5044 H           1 K26       0.0530
     66 H29       -11.7276   21.2572  -13.3119 H           1 K26       0.0525
     67 H30       -14.1253   20.5135  -11.5639 H           1 K26       0.2458
     68 H31       -13.5027   22.4613   -9.6880 H           1 K26       0.0525
     69 H32       -11.3584   23.2093   -8.8845 H           1 K26       0.0530
@<TRIPOS>BOND
     1     1     2  ar
     2     1     7  ar
     3     2     3  ar
     4     3     4   1
     5     3     5  ar
     6     5     6  ar
     7     6     7  ar
     8     7     8   1
     9     8     9   1
    10     9    10   1
    11     9    14   1
    12    10    11  ar
    13    10    12  ar
    14    10    13  ar
    15    14    15  am
    16    15    16   2
    17    15    17   1
    18    17    18   1
    19    17    30   1
    20    18    19  am
    21    19    20   2
    22    19    21   1
    23    21    22   1
    24    21    26   1
    25    22    23   1
    26    22    24   1
    27    24    25   1
    28    26    27  am
    29    27    28   1
    30    27    29   2
    31    30    31   1
    32    31    32  ar
    33    31    37  ar
    34    32    33  ar
    35    33    34  ar
    36    34    35   1
    37    34    36  ar
    38    36    37  ar
    39     1    38   1
    40     2    39   1
    41     4    40   1
    42     5    41   1
    43     6    42   1
    44     8    43   1
    45     8    44   1
    46     9    45   1
    47    14    46   1
    48    17    47   1
    49    18    48   1
    50    21    49   1
    51    22    50   1
    52    23    51   1
    53    23    52   1
    54    23    53   1
    55    24    54   1
    56    24    55   1
    57    25    56   1
    58    25    57   1
    59    25    58   1
    60    26    59   1
    61    28    60   1
    62    28    61   1
    63    28    62   1
    64    30    63   1
    65    30    64   1
    66    32    65   1
    67    33    66   1
    68    35    67   1
    69    36    68   1
    70    37    69   1
@<TRIPOS>SUBSTRUCTURE
     1  K26      1

