@<TRIPOS>MOLECULE
2xhm_ligand_059
    69    70
SMALL
GAST_HUCK
****
This file was generated by PARSER (from files_GN.cpp)

@<TRIPOS>ATOM
      1 CAR        -9.0605   24.0275   -8.0429 C.ar        1 K26      -0.0686
      2 CAN        -8.1307   23.4747   -7.1442 C.ar        1 K26      -0.0398
      3 CBD        -8.5432   23.0561   -5.8630 C.ar        1 K26       0.0805
      4 OAI        -7.6695   22.3959   -5.0439 O.3         1 K26      -0.3376
      5 CAO        -9.8740   23.2732   -5.4552 C.ar        1 K26      -0.0398
      6 CAS       -10.7873   23.8878   -6.3304 C.ar        1 K26      -0.0686
      7 CBF       -10.3976   24.2427   -7.6453 C.ar        1 K26      -0.0501
      8 CAV       -11.4216   24.7064   -8.6295 C.3         1 K26       0.0145
      9 CBI       -10.8743   25.4259   -9.9059 C.3         1 K26       0.1207
     10 PBK       -12.0802   25.8306  -10.9820 P.3         1 K26       0.0863
     11 OAJ       -11.5499   26.5404  -12.1180 O.co2       1 K26      -0.5606
     12 OAK       -12.7312   24.6479  -11.4940 O.co2       1 K26      -0.5606
     13 OAG       -13.0930   26.6580  -10.3714 O.co2       1 K26      -0.5606
     14 NAY       -10.1579   26.6214   -9.5570 N.am        1 K26      -0.2653
     15 C          -8.9217   26.9487   -9.9222 C.2         1 K26       0.2049
     16 O          -8.2141   26.1618  -10.5401 O.2         1 K26      -0.3943
     17 CA         -8.3907   28.2755   -9.6113 C.3         1 K26       0.1389
     18 N          -7.5276   28.2490   -8.4687 N.am        1 K26      -0.2621
     19 CBB        -6.2438   27.9195   -8.3764 C.2         1 K26       0.2043
     20 OAF        -5.5953   27.6091   -9.3689 O.2         1 K26      -0.3944
     21 CBJ        -5.5463   28.0835   -7.0997 C.3         1 K26       0.1334
     22 CBG        -5.8189   26.9413   -6.0458 C.3         1 K26      -0.0037
     23 CAC        -7.2586   26.3413   -6.1224 C.3         1 K26      -0.0582
     24 CAT        -4.7356   25.8062   -6.0723 C.3         1 K26      -0.0491
     25 CAA        -4.8643   24.7813   -4.9122 C.3         1 K26      -0.0648
     26 NAX        -5.8417   29.3688   -6.5099 N.am        1 K26      -0.2656
     27 CAZ        -5.3504   30.5435   -6.8895 C.2         1 K26       0.1751
     28 CAB        -5.7523   31.7318   -6.1738 C.3         1 K26       0.0258
     29 OAD        -4.5460   30.6319   -7.8094 O.2         1 K26      -0.3972
     30 CB         -7.8023   28.9880  -10.8733 C.3         1 K26       0.0163
     31 CG         -7.1424   30.3032  -10.6331 C.ar        1 K26      -0.0493
     32 CD1        -7.7023   31.2386   -9.7300 C.ar        1 K26      -0.0685
     33 CE1        -7.1055   32.4992   -9.5257 C.ar        1 K26      -0.0398
     34 CZ         -5.9466   32.8642  -10.2410 C.ar        1 K26       0.0805
     35 OH         -5.3709   34.0851  -10.0696 O.3         1 K26      -0.3376
     36 CE2        -5.3840   31.9470  -11.1512 C.ar        1 K26      -0.0398
     37 CD2        -5.9670   30.6773  -11.3363 C.ar        1 K26      -0.0685
     38 H1         -8.7592   24.2470   -8.9889 H           1 K26       0.0530
     39 H2         -7.1741   23.2947   -7.4563 H           1 K26       0.0525
     40 H3         -7.1354   21.8274   -5.6451 H           1 K26       0.2458
     41 H4        -10.1679   22.9865   -4.5182 H           1 K26       0.0525
     42 H5        -11.7494   24.0076   -6.0149 H           1 K26       0.0530
     43 H6        -12.1491   25.3704   -8.1318 H           1 K26       0.0442
     44 H7        -11.9840   23.8142   -8.9482 H           1 K26       0.0442
     45 H8        -10.2229   24.7195  -10.4259 H           1 K26       0.0771
     46 H9        -10.6380   27.2774   -9.0285 H           1 K26       0.1870
     47 H10        -9.2243   28.9008   -9.2883 H           1 K26       0.0821
     48 H11        -7.9396   28.5361   -7.6392 H           1 K26       0.1885
     49 H12        -4.4635   28.0889   -7.2811 H           1 K26       0.0803
     50 H13        -5.7315   27.4230   -5.0603 H           1 K26       0.0345
     51 H14        -7.4763   25.7710   -5.2137 H           1 K26       0.0235
     52 H15        -7.3553   25.6666   -6.9831 H           1 K26       0.0235
     53 H16        -8.0044   27.1422   -6.1978 H           1 K26       0.0235
     54 H17        -3.7380   26.2519   -5.9973 H           1 K26       0.0267
     55 H18        -4.7821   25.2701   -7.0262 H           1 K26       0.0267
     56 H19        -4.0061   24.1018   -4.9211 H           1 K26       0.0230
     57 H20        -5.7768   24.1885   -5.0226 H           1 K26       0.0230
     58 H21        -4.8858   25.2989   -3.9467 H           1 K26       0.0230
     59 H22        -6.4417   29.3736   -5.7439 H           1 K26       0.1883
     60 H23        -5.2630   32.6242   -6.5773 H           1 K26       0.0467
     61 H24        -5.4807   31.6323   -5.1180 H           1 K26       0.0467
     62 H25        -6.8362   31.8611   -6.2563 H           1 K26       0.0467
     63 H26        -8.6188   29.1788  -11.5749 H           1 K26       0.0453
     64 H27        -7.1042   28.3169  -11.3819 H           1 K26       0.0453
     65 H28        -8.5618   31.0149   -9.2161 H           1 K26       0.0530
     66 H29        -7.5158   33.1526   -8.8486 H           1 K26       0.0525
     67 H30        -6.1170   34.7225  -10.0456 H           1 K26       0.2458
     68 H31        -4.5409   32.2024  -11.6779 H           1 K26       0.0525
     69 H32        -5.5412   30.0357  -12.0120 H           1 K26       0.0530
@<TRIPOS>BOND
     1     1     2  ar
     2     1     7  ar
     3     2     3  ar
     4     3     4   1
     5     3     5  ar
     6     5     6  ar
     7     6     7  ar
     8     7     8   1
     9     8     9   1
    10     9    10   1
    11     9    14   1
    12    10    11  ar
    13    10    12  ar
    14    10    13  ar
    15    14    15  am
    16    15    16   2
    17    15    17   1
    18    17    18   1
    19    17    30   1
    20    18    19  am
    21    19    20   2
    22    19    21   1
    23    21    22   1
    24    21    26   1
    25    22    23   1
    26    22    24   1
    27    24    25   1
    28    26    27  am
    29    27    28   1
    30    27    29   2
    31    30    31   1
    32    31    32  ar
    33    31    37  ar
    34    32    33  ar
    35    33    34  ar
    36    34    35   1
    37    34    36  ar
    38    36    37  ar
    39     1    38   1
    40     2    39   1
    41     4    40   1
    42     5    41   1
    43     6    42   1
    44     8    43   1
    45     8    44   1
    46     9    45   1
    47    14    46   1
    48    17    47   1
    49    18    48   1
    50    21    49   1
    51    22    50   1
    52    23    51   1
    53    23    52   1
    54    23    53   1
    55    24    54   1
    56    24    55   1
    57    25    56   1
    58    25    57   1
    59    25    58   1
    60    26    59   1
    61    28    60   1
    62    28    61   1
    63    28    62   1
    64    30    63   1
    65    30    64   1
    66    32    65   1
    67    33    66   1
    68    35    67   1
    69    36    68   1
    70    37    69   1
@<TRIPOS>SUBSTRUCTURE
     1  K26      1

