@<TRIPOS>MOLECULE
2xhm_ligand_028
    69    70
SMALL
GAST_HUCK
****
This file was generated by PARSER (from files_GN.cpp)

@<TRIPOS>ATOM
      1 CAR        -8.7816   25.8801  -15.2007 C.ar        1 K26      -0.0686
      2 CAN        -8.4490   27.1724  -15.6568 C.ar        1 K26      -0.0398
      3 CBD        -7.6456   27.3352  -16.7982 C.ar        1 K26       0.0805
      4 OAI        -7.2539   28.5744  -17.1782 O.3         1 K26      -0.3376
      5 CAO        -7.2376   26.2026  -17.5252 C.ar        1 K26      -0.0398
      6 CAS        -7.5720   24.9126  -17.0729 C.ar        1 K26      -0.0686
      7 CBF        -8.3102   24.7283  -15.8789 C.ar        1 K26      -0.0501
      8 CAV        -8.6190   23.3579  -15.3810 C.3         1 K26       0.0145
      9 CBI        -7.5448   22.6172  -14.5094 C.3         1 K26       0.1207
     10 PBK        -5.9546   22.7012  -15.0246 P.3         1 K26       0.0863
     11 OAJ        -5.8332   22.4257  -16.4364 O.co2       1 K26      -0.5606
     12 OAK        -5.3648   23.9947  -14.7673 O.co2       1 K26      -0.5606
     13 OAG        -5.1341   21.7291  -14.3482 O.co2       1 K26      -0.5606
     14 NAY        -7.6862   22.8480  -13.0941 N.am        1 K26      -0.2653
     15 C          -7.5366   23.9663  -12.3877 C.2         1 K26       0.2049
     16 O          -7.1429   24.9960  -12.9197 O.2         1 K26      -0.3943
     17 CA         -7.7859   23.9814  -10.9488 C.3         1 K26       0.1389
     18 N          -9.0531   23.3725  -10.6051 N.am        1 K26      -0.2621
     19 CBB       -10.2651   23.8079  -10.9391 C.2         1 K26       0.2043
     20 OAF       -10.3754   24.8497  -11.5736 O.2         1 K26      -0.3944
     21 CBJ       -11.4604   23.1520  -10.3902 C.3         1 K26       0.1334
     22 CBG       -12.8448   23.5852  -11.0132 C.3         1 K26      -0.0037
     23 CAC       -12.9020   23.3320  -12.5517 C.3         1 K26      -0.0582
     24 CAT       -14.1110   22.9698  -10.3179 C.3         1 K26      -0.0491
     25 CAA       -14.3284   21.4454  -10.4812 C.3         1 K26      -0.0648
     26 NAX       -11.5134   23.1878   -8.9485 N.am        1 K26      -0.2656
     27 CAZ       -10.9100   23.9968   -8.0811 C.2         1 K26       0.1751
     28 CAB       -11.0803   23.7501   -6.6694 C.3         1 K26       0.0258
     29 OAD       -10.1999   24.9264   -8.4479 O.2         1 K26      -0.3972
     30 CB         -6.6175   23.3092  -10.1435 C.3         1 K26       0.0163
     31 CG         -6.4591   23.9136   -8.7868 C.ar        1 K26      -0.0493
     32 CD1        -5.3796   24.7876   -8.5087 C.ar        1 K26      -0.0685
     33 CE1        -5.3037   25.4720   -7.2816 C.ar        1 K26      -0.0398
     34 CZ         -6.3068   25.2959   -6.3111 C.ar        1 K26       0.0805
     35 OH         -6.2423   25.9960   -5.1531 O.3         1 K26      -0.3376
     36 CE2        -7.3640   24.3991   -6.5587 C.ar        1 K26      -0.0398
     37 CD2        -7.4393   23.7150   -7.7864 C.ar        1 K26      -0.0685
     38 H1         -9.3498   25.7877  -14.3600 H           1 K26       0.0530
     39 H2         -8.7778   27.9929  -15.1431 H           1 K26       0.0525
     40 H3         -6.2850   28.5021  -17.3391 H           1 K26       0.2458
     41 H4         -6.6915   26.3182  -18.3850 H           1 K26       0.0525
     42 H5         -7.2565   24.1077  -17.6161 H           1 K26       0.0530
     43 H6         -8.8538   22.7322  -16.2513 H           1 K26       0.0442
     44 H7         -9.5469   23.3874  -14.7987 H           1 K26       0.0442
     45 H8         -7.7977   21.5586  -14.6133 H           1 K26       0.0771
     46 H9         -7.9394   22.0678  -12.5764 H           1 K26       0.1870
     47 H10        -7.8419   25.0285  -10.6363 H           1 K26       0.0821
     48 H11        -9.0158   22.5934  -10.0257 H           1 K26       0.1885
     49 H12       -11.3396   22.0903  -10.6332 H           1 K26       0.0803
     50 H13       -12.9313   24.6644  -10.8638 H           1 K26       0.0345
     51 H14       -13.8807   23.5992  -12.9512 H           1 K26       0.0235
     52 H15       -12.7059   22.2827  -12.7783 H           1 K26       0.0235
     53 H16       -12.1567   23.9370  -13.0740 H           1 K26       0.0235
     54 H17       -15.0053   23.4693  -10.7008 H           1 K26       0.0267
     55 H18       -14.0822   23.1891   -9.2443 H           1 K26       0.0267
     56 H19       -15.1896   21.1314   -9.8881 H           1 K26       0.0230
     57 H20       -13.4522   20.8915  -10.1382 H           1 K26       0.0230
     58 H21       -14.5235   21.1916  -11.5262 H           1 K26       0.0230
     59 H22       -12.1021   22.5277   -8.5494 H           1 K26       0.1883
     60 H23       -10.4457   24.4064   -6.0653 H           1 K26       0.0467
     61 H24       -10.8195   22.7155   -6.4322 H           1 K26       0.0467
     62 H25       -12.1209   23.9195   -6.3818 H           1 K26       0.0467
     63 H26        -5.6724   23.4145  -10.6890 H           1 K26       0.0453
     64 H27        -6.7844   22.2289  -10.0465 H           1 K26       0.0453
     65 H28        -4.6578   24.9606   -9.2133 H           1 K26       0.0530
     66 H29        -4.5316   26.1200   -7.1096 H           1 K26       0.0525
     67 H30        -7.1209   26.4233   -5.0350 H           1 K26       0.2458
     68 H31        -8.0863   24.2550   -5.8507 H           1 K26       0.0525
     69 H32        -8.2258   23.0851   -7.9554 H           1 K26       0.0530
@<TRIPOS>BOND
     1     1     2  ar
     2     1     7  ar
     3     2     3  ar
     4     3     4   1
     5     3     5  ar
     6     5     6  ar
     7     6     7  ar
     8     7     8   1
     9     8     9   1
    10     9    10   1
    11     9    14   1
    12    10    11  ar
    13    10    12  ar
    14    10    13  ar
    15    14    15  am
    16    15    16   2
    17    15    17   1
    18    17    18   1
    19    17    30   1
    20    18    19  am
    21    19    20   2
    22    19    21   1
    23    21    22   1
    24    21    26   1
    25    22    23   1
    26    22    24   1
    27    24    25   1
    28    26    27  am
    29    27    28   1
    30    27    29   2
    31    30    31   1
    32    31    32  ar
    33    31    37  ar
    34    32    33  ar
    35    33    34  ar
    36    34    35   1
    37    34    36  ar
    38    36    37  ar
    39     1    38   1
    40     2    39   1
    41     4    40   1
    42     5    41   1
    43     6    42   1
    44     8    43   1
    45     8    44   1
    46     9    45   1
    47    14    46   1
    48    17    47   1
    49    18    48   1
    50    21    49   1
    51    22    50   1
    52    23    51   1
    53    23    52   1
    54    23    53   1
    55    24    54   1
    56    24    55   1
    57    25    56   1
    58    25    57   1
    59    25    58   1
    60    26    59   1
    61    28    60   1
    62    28    61   1
    63    28    62   1
    64    30    63   1
    65    30    64   1
    66    32    65   1
    67    33    66   1
    68    35    67   1
    69    36    68   1
    70    37    69   1
@<TRIPOS>SUBSTRUCTURE
     1  K26      1

