@<TRIPOS>MOLECULE
2xhm_ligand_052
    69    70
SMALL
GAST_HUCK
****
This file was generated by PARSER (from files_GN.cpp)

@<TRIPOS>ATOM
      1 CAR       -11.4512   26.3835   -9.4842 C.ar        1 K26      -0.0686
      2 CAN       -10.5266   26.9150   -8.5621 C.ar        1 K26      -0.0398
      3 CBD        -9.3334   27.5080   -9.0143 C.ar        1 K26       0.0805
      4 OAI        -8.4433   28.0160   -8.1305 O.3         1 K26      -0.3376
      5 CAO        -9.0782   27.5884  -10.3944 C.ar        1 K26      -0.0398
      6 CAS        -9.9985   27.0499  -11.3157 C.ar        1 K26      -0.0686
      7 CBF       -11.1872   26.4161  -10.8739 C.ar        1 K26      -0.0501
      8 CAV       -12.1129   25.7669  -11.8508 C.3         1 K26       0.0145
      9 CBI       -12.2121   24.1996  -11.8251 C.3         1 K26       0.1207
     10 PBK       -10.7655   23.3671  -11.7165 P.3         1 K26       0.0863
     11 OAJ       -10.9666   21.9756  -11.3853 O.co2       1 K26      -0.5606
     12 OAK       -10.0830   23.3778  -12.9913 O.co2       1 K26      -0.5606
     13 OAG        -9.8547   23.8916  -10.7263 O.co2       1 K26      -0.5606
     14 NAY       -13.1220   23.7410  -10.8056 N.am        1 K26      -0.2653
     15 C         -14.2012   22.9780  -10.9882 C.2         1 K26       0.2049
     16 O         -14.4890   22.5659  -12.1063 O.2         1 K26      -0.3943
     17 CA        -15.0874   22.6091   -9.8852 C.3         1 K26       0.1389
     18 N         -16.3459   23.3044   -9.9501 N.am        1 K26      -0.2621
     19 CBB       -17.3274   23.1871  -10.8497 C.2         1 K26       0.2043
     20 OAF       -17.1572   22.5034  -11.8541 O.2         1 K26      -0.3944
     21 CBJ       -18.5745   23.9452  -10.6665 C.3         1 K26       0.1334
     22 CBG       -19.2429   23.7641   -9.2392 C.3         1 K26      -0.0037
     23 CAC       -19.9454   25.0674   -8.7627 C.3         1 K26      -0.0582
     24 CAT       -20.1497   22.5003   -9.0490 C.3         1 K26      -0.0491
     25 CAA       -21.6520   22.6215   -9.4227 C.3         1 K26      -0.0648
     26 NAX       -19.5294   23.8983  -11.7508 N.am        1 K26      -0.2656
     27 CAZ       -19.9847   22.8616  -12.4544 C.2         1 K26       0.1751
     28 CAB       -20.9134   23.1101  -13.5328 C.3         1 K26       0.0258
     29 OAD       -19.6427   21.7064  -12.2174 O.2         1 K26      -0.3972
     30 CB        -15.2725   21.0591   -9.7514 C.3         1 K26       0.0163
     31 CG        -16.4302   20.6212   -8.9117 C.ar        1 K26      -0.0493
     32 CD1       -17.5676   20.0063   -9.4951 C.ar        1 K26      -0.0685
     33 CE1       -18.6480   19.5824   -8.7045 C.ar        1 K26      -0.0398
     34 CZ        -18.6174   19.7573   -7.3074 C.ar        1 K26       0.0805
     35 OH        -19.6500   19.3280   -6.5309 O.3         1 K26      -0.3376
     36 CE2       -17.5024   20.3817   -6.7151 C.ar        1 K26      -0.0398
     37 CD2       -16.4182   20.8035   -7.5086 C.ar        1 K26      -0.0685
     38 H1        -12.3099   25.9540   -9.1297 H           1 K26       0.0530
     39 H2        -10.7254   26.8657   -7.5579 H           1 K26       0.0525
     40 H3         -7.9033   27.2469   -7.8561 H           1 K26       0.2458
     41 H4         -8.2161   28.0229  -10.7313 H           1 K26       0.0525
     42 H5         -9.7769   27.1036  -12.3128 H           1 K26       0.0530
     43 H6        -11.8211   26.0622  -12.8632 H           1 K26       0.0442
     44 H7        -13.1073   26.1926  -11.6974 H           1 K26       0.0442
     45 H8        -12.6064   23.9220  -12.8072 H           1 K26       0.0771
     46 H9        -12.9289   24.0143   -9.8946 H           1 K26       0.1870
     47 H10       -14.6200   22.9429   -8.9496 H           1 K26       0.0821
     48 H11       -16.5207   23.8784   -9.1840 H           1 K26       0.1885
     49 H12       -18.2238   24.9837  -10.7045 H           1 K26       0.0803
     50 H13       -18.4280   23.6358   -8.5129 H           1 K26       0.0345
     51 H14       -20.3744   24.9207   -7.7662 H           1 K26       0.0235
     52 H15       -20.7397   25.3512   -9.4621 H           1 K26       0.0235
     53 H16       -19.2273   25.8930   -8.7016 H           1 K26       0.0235
     54 H17       -20.1161   22.2071   -7.9922 H           1 K26       0.0267
     55 H18       -19.7123   21.6763   -9.6096 H           1 K26       0.0267
     56 H19       -22.1096   21.6269   -9.4445 H           1 K26       0.0230
     57 H20       -21.7940   23.0910  -10.3990 H           1 K26       0.0230
     58 H21       -22.1787   23.2209   -8.6753 H           1 K26       0.0230
     59 H22       -19.8796   24.7569  -12.0241 H           1 K26       0.1883
     60 H23       -21.2212   22.1782  -14.0272 H           1 K26       0.0467
     61 H24       -20.4476   23.7587  -14.2837 H           1 K26       0.0467
     62 H25       -21.8095   23.6058  -13.1427 H           1 K26       0.0467
     63 H26       -14.3628   20.6264   -9.3279 H           1 K26       0.0453
     64 H27       -15.3796   20.6283  -10.7498 H           1 K26       0.0453
     65 H28       -17.6169   19.8613  -10.5036 H           1 K26       0.0530
     66 H29       -19.4531   19.1302   -9.1472 H           1 K26       0.0525
     67 H30       -20.0554   18.5689   -7.0073 H           1 K26       0.2458
     68 H31       -17.4717   20.5198   -5.7019 H           1 K26       0.0525
     69 H32       -15.6063   21.2200   -7.0513 H           1 K26       0.0530
@<TRIPOS>BOND
     1     1     2  ar
     2     1     7  ar
     3     2     3  ar
     4     3     4   1
     5     3     5  ar
     6     5     6  ar
     7     6     7  ar
     8     7     8   1
     9     8     9   1
    10     9    10   1
    11     9    14   1
    12    10    11  ar
    13    10    12  ar
    14    10    13  ar
    15    14    15  am
    16    15    16   2
    17    15    17   1
    18    17    18   1
    19    17    30   1
    20    18    19  am
    21    19    20   2
    22    19    21   1
    23    21    22   1
    24    21    26   1
    25    22    23   1
    26    22    24   1
    27    24    25   1
    28    26    27  am
    29    27    28   1
    30    27    29   2
    31    30    31   1
    32    31    32  ar
    33    31    37  ar
    34    32    33  ar
    35    33    34  ar
    36    34    35   1
    37    34    36  ar
    38    36    37  ar
    39     1    38   1
    40     2    39   1
    41     4    40   1
    42     5    41   1
    43     6    42   1
    44     8    43   1
    45     8    44   1
    46     9    45   1
    47    14    46   1
    48    17    47   1
    49    18    48   1
    50    21    49   1
    51    22    50   1
    52    23    51   1
    53    23    52   1
    54    23    53   1
    55    24    54   1
    56    24    55   1
    57    25    56   1
    58    25    57   1
    59    25    58   1
    60    26    59   1
    61    28    60   1
    62    28    61   1
    63    28    62   1
    64    30    63   1
    65    30    64   1
    66    32    65   1
    67    33    66   1
    68    35    67   1
    69    36    68   1
    70    37    69   1
@<TRIPOS>SUBSTRUCTURE
     1  K26      1

