@<TRIPOS>MOLECULE
2xhm_ligand_001
    69    70
SMALL
GAST_HUCK
****
This file was generated by PARSER (from files_GN.cpp)

@<TRIPOS>ATOM
      1 CAR       -19.1636   19.3839  -10.4426 C.ar        1 K26      -0.0686
      2 CAN       -20.2110   18.6760  -11.0589 C.ar        1 K26      -0.0398
      3 CBD       -20.8476   19.2081  -12.1947 C.ar        1 K26       0.0805
      4 OAI       -21.8490   18.5165  -12.7983 O.3         1 K26      -0.3376
      5 CAO       -20.4346   20.4551  -12.7006 C.ar        1 K26      -0.0398
      6 CAS       -19.3919   21.1652  -12.0777 C.ar        1 K26      -0.0686
      7 CBF       -18.7337   20.6447  -10.9323 C.ar        1 K26      -0.0501
      8 CAV       -17.5621   21.3015  -10.2623 C.3         1 K26       0.0145
      9 CBI       -17.1715   22.7739  -10.6226 C.3         1 K26       0.1207
     10 PBK       -18.2118   23.9208   -9.9888 P.3         1 K26       0.0863
     11 OAJ       -18.1333   24.0073   -8.5511 O.co2       1 K26      -0.5606
     12 OAK       -17.9276   25.2303  -10.5236 O.co2       1 K26      -0.5606
     13 OAG       -19.5892   23.6535  -10.3208 O.co2       1 K26      -0.5606
     14 NAY       -15.8390   23.0588  -10.1371 N.am        1 K26      -0.2653
     15 C         -14.7123   23.1118  -10.8477 C.2         1 K26       0.2049
     16 O         -14.7388   22.7753  -12.0278 O.2         1 K26      -0.3943
     17 CA        -13.4277   23.4190  -10.2090 C.3         1 K26       0.1389
     18 N         -12.3594   23.5839  -11.1665 N.am        1 K26      -0.2621
     19 CBB       -11.3911   22.7237  -11.4630 C.2         1 K26       0.2043
     20 OAF       -11.3858   21.5942  -10.9781 O.2         1 K26      -0.3944
     21 CBJ       -10.3550   23.0874  -12.4318 C.3         1 K26       0.1334
     22 CBG       -10.6710   22.5137  -13.8683 C.3         1 K26      -0.0037
     23 CAC       -11.8570   23.2972  -14.5093 C.3         1 K26      -0.0582
     24 CAT        -9.4304   22.5030  -14.8277 C.3         1 K26      -0.0491
     25 CAA        -9.6557   21.8349  -16.2079 C.3         1 K26      -0.0648
     26 NAX        -9.0790   22.6468  -11.9316 N.am        1 K26      -0.2656
     27 CAZ        -8.2190   23.3452  -11.1945 C.2         1 K26       0.1751
     28 CAB        -6.9608   22.7341  -10.8291 C.3         1 K26       0.0258
     29 OAD        -8.4699   24.4814  -10.8171 O.2         1 K26      -0.3972
     30 CB        -13.4750   24.7219   -9.3434 C.3         1 K26       0.0163
     31 CG        -12.1759   25.1318   -8.7253 C.ar        1 K26      -0.0493
     32 CD1       -11.4733   24.2622   -7.8573 C.ar        1 K26      -0.0685
     33 CE1       -10.2547   24.6558   -7.2716 C.ar        1 K26      -0.0398
     34 CZ         -9.7272   25.9356   -7.5304 C.ar        1 K26       0.0805
     35 OH         -8.5779   26.3426   -6.9378 O.3         1 K26      -0.3376
     36 CE2       -10.4227   26.8153   -8.3776 C.ar        1 K26      -0.0398
     37 CD2       -11.6325   26.4163   -8.9722 C.ar        1 K26      -0.0685
     38 H1        -18.7071   18.9596   -9.6282 H           1 K26       0.0530
     39 H2        -20.5017   17.7656  -10.6940 H           1 K26       0.0525
     40 H3        -21.6993   18.6648  -13.7565 H           1 K26       0.2458
     41 H4        -20.8901   20.8442  -13.5320 H           1 K26       0.0525
     42 H5        -19.1062   22.0556  -12.4822 H           1 K26       0.0530
     43 H6        -16.7016   20.6687  -10.4978 H           1 K26       0.0442
     44 H7        -17.7030   21.2447   -9.1768 H           1 K26       0.0442
     45 H8        -17.2003   22.8834  -11.7092 H           1 K26       0.0771
     46 H9        -15.7593   23.2299   -9.1823 H           1 K26       0.1870
     47 H10       -13.2157   22.5776   -9.5390 H           1 K26       0.0821
     48 H11       -12.3375   24.4312  -11.6373 H           1 K26       0.1885
     49 H12       -10.3237   24.1787  -12.5205 H           1 K26       0.0803
     50 H13       -10.9875   21.4696  -13.7581 H           1 K26       0.0345
     51 H14       -12.1475   22.8563  -15.4590 H           1 K26       0.0235
     52 H15       -11.5783   24.3395  -14.6804 H           1 K26       0.0235
     53 H16       -12.7347   23.2745  -13.8662 H           1 K26       0.0235
     54 H17        -8.6166   21.9463  -14.3543 H           1 K26       0.0267
     55 H18        -9.0821   23.5278  -14.9821 H           1 K26       0.0267
     56 H19        -8.7012   21.7230  -16.7248 H           1 K26       0.0230
     57 H20       -10.3073   22.4433  -16.8354 H           1 K26       0.0230
     58 H21       -10.0994   20.8452  -16.0867 H           1 K26       0.0230
     59 H22        -8.8091   21.7440  -12.1583 H           1 K26       0.1883
     60 H23        -6.3457   23.4098  -10.2266 H           1 K26       0.0467
     61 H24        -6.4012   22.4764  -11.7308 H           1 K26       0.0467
     62 H25        -7.1386   21.8239  -10.2505 H           1 K26       0.0467
     63 H26       -14.1839   24.5903   -8.5257 H           1 K26       0.0453
     64 H27       -13.8722   25.5245   -9.9721 H           1 K26       0.0453
     65 H28       -11.8401   23.3321   -7.6457 H           1 K26       0.0530
     66 H29        -9.7611   24.0142   -6.6471 H           1 K26       0.0525
     67 H30        -8.8346   26.5141   -6.0064 H           1 K26       0.2458
     68 H31       -10.0574   27.7526   -8.5514 H           1 K26       0.0525
     69 H32       -12.1240   27.0745   -9.5817 H           1 K26       0.0530
@<TRIPOS>BOND
     1     1     2  ar
     2     1     7  ar
     3     2     3  ar
     4     3     4   1
     5     3     5  ar
     6     5     6  ar
     7     6     7  ar
     8     7     8   1
     9     8     9   1
    10     9    10   1
    11     9    14   1
    12    10    11  ar
    13    10    12  ar
    14    10    13  ar
    15    14    15  am
    16    15    16   2
    17    15    17   1
    18    17    18   1
    19    17    30   1
    20    18    19  am
    21    19    20   2
    22    19    21   1
    23    21    22   1
    24    21    26   1
    25    22    23   1
    26    22    24   1
    27    24    25   1
    28    26    27  am
    29    27    28   1
    30    27    29   2
    31    30    31   1
    32    31    32  ar
    33    31    37  ar
    34    32    33  ar
    35    33    34  ar
    36    34    35   1
    37    34    36  ar
    38    36    37  ar
    39     1    38   1
    40     2    39   1
    41     4    40   1
    42     5    41   1
    43     6    42   1
    44     8    43   1
    45     8    44   1
    46     9    45   1
    47    14    46   1
    48    17    47   1
    49    18    48   1
    50    21    49   1
    51    22    50   1
    52    23    51   1
    53    23    52   1
    54    23    53   1
    55    24    54   1
    56    24    55   1
    57    25    56   1
    58    25    57   1
    59    25    58   1
    60    26    59   1
    61    28    60   1
    62    28    61   1
    63    28    62   1
    64    30    63   1
    65    30    64   1
    66    32    65   1
    67    33    66   1
    68    35    67   1
    69    36    68   1
    70    37    69   1
@<TRIPOS>SUBSTRUCTURE
     1  K26      1

