@<TRIPOS>MOLECULE
2xhm_ligand_043
    69    70
SMALL
GAST_HUCK
****
This file was generated by PARSER (from files_GN.cpp)

@<TRIPOS>ATOM
      1 CAR        -4.5963   25.5744   -5.7785 C.ar        1 K26      -0.0686
      2 CAN        -4.1328   25.5747   -4.4467 C.ar        1 K26      -0.0398
      3 CBD        -5.0467   25.5652   -3.3761 C.ar        1 K26       0.0805
      4 OAI        -4.5828   25.5533   -2.1015 O.3         1 K26      -0.3376
      5 CAO        -6.4276   25.5628   -3.6464 C.ar        1 K26      -0.0398
      6 CAS        -6.8907   25.5564   -4.9724 C.ar        1 K26      -0.0686
      7 CBF        -5.9832   25.5582   -6.0580 C.ar        1 K26      -0.0501
      8 CAV        -6.5083   25.5030   -7.4523 C.3         1 K26       0.0145
      9 CBI        -7.4241   26.7185   -7.8364 C.3         1 K26       0.1207
     10 PBK        -6.6290   27.9610   -8.6059 P.3         1 K26       0.0863
     11 OAJ        -6.0246   27.5216   -9.8435 O.co2       1 K26      -0.5606
     12 OAK        -7.5524   29.0200   -8.9358 O.co2       1 K26      -0.5606
     13 OAG        -5.5931   28.5330   -7.7755 O.co2       1 K26      -0.5606
     14 NAY        -8.4875   26.2418   -8.6799 N.am        1 K26      -0.2653
     15 C          -9.7806   26.5311   -8.5860 C.2         1 K26       0.2049
     16 O         -10.1694   27.4225   -7.8385 O.2         1 K26      -0.3943
     17 CA        -10.7643   25.7596   -9.3365 C.3         1 K26       0.1389
     18 N         -10.4344   25.7198  -10.7398 N.am        1 K26      -0.2621
     19 CBB        -9.6391   24.8874  -11.4059 C.2         1 K26       0.2043
     20 OAF        -9.0626   23.9834  -10.8035 O.2         1 K26      -0.3944
     21 CBJ        -9.4193   25.0552  -12.8505 C.3         1 K26       0.1334
     22 CBG       -10.7343   25.1042  -13.7283 C.3         1 K26      -0.0037
     23 CAC       -10.4107   25.2239  -15.2480 C.3         1 K26      -0.0582
     24 CAT       -11.7877   23.9686  -13.4524 C.3         1 K26      -0.0491
     25 CAA       -13.1337   24.4695  -12.8612 C.3         1 K26      -0.0648
     26 NAX        -8.3990   24.1842  -13.3804 N.am        1 K26      -0.2656
     27 CAZ        -8.5122   22.9256  -13.7736 C.2         1 K26       0.1751
     28 CAB        -7.3216   22.2399  -14.2260 C.3         1 K26       0.0258
     29 OAD        -9.5907   22.3269  -13.7465 O.2         1 K26      -0.3972
     30 CB        -11.0601   24.3864   -8.6485 C.3         1 K26       0.0163
     31 CG        -12.0256   23.5481   -9.4119 C.ar        1 K26      -0.0493
     32 CD1       -11.5790   22.4627  -10.1965 C.ar        1 K26      -0.0685
     33 CE1       -12.4857   21.6953  -10.9489 C.ar        1 K26      -0.0398
     34 CZ        -13.8566   22.0205  -10.9479 C.ar        1 K26       0.0805
     35 OH        -14.7230   21.3086  -11.7105 O.3         1 K26      -0.3376
     36 CE2       -14.3196   23.0851  -10.1517 C.ar        1 K26      -0.0398
     37 CD2       -13.4118   23.8409   -9.3900 C.ar        1 K26      -0.0685
     38 H1         -3.9132   25.5785   -6.5405 H           1 K26       0.0530
     39 H2         -3.1281   25.5846   -4.2591 H           1 K26       0.0525
     40 H3         -5.3624   25.4232   -1.5218 H           1 K26       0.2458
     41 H4         -7.1011   25.5634   -2.8796 H           1 K26       0.0525
     42 H5         -7.9008   25.5385   -5.1420 H           1 K26       0.0530
     43 H6         -7.0758   24.5689   -7.5299 H           1 K26       0.0442
     44 H7         -5.6886   25.4009   -8.1702 H           1 K26       0.0442
     45 H8         -7.8478   27.1431   -6.9217 H           1 K26       0.0771
     46 H9         -8.2408   25.5621   -9.3283 H           1 K26       0.1870
     47 H10       -11.7089   26.3116   -9.2977 H           1 K26       0.0821
     48 H11       -10.8743   26.4029  -11.2746 H           1 K26       0.1885
     49 H12        -8.9756   26.0539  -12.9370 H           1 K26       0.0803
     50 H13       -11.2071   26.0555  -13.4668 H           1 K26       0.0345
     51 H14       -11.3241   25.4216  -15.8125 H           1 K26       0.0235
     52 H15        -9.9668   24.3020  -15.6292 H           1 K26       0.0235
     53 H16        -9.7137   26.0446  -15.4256 H           1 K26       0.0235
     54 H17       -11.3802   23.2295  -12.7528 H           1 K26       0.0267
     55 H18       -12.0232   23.4225  -14.3742 H           1 K26       0.0267
     56 H19       -13.8011   23.6139  -12.7087 H           1 K26       0.0230
     57 H20       -13.6136   25.1745  -13.5460 H           1 K26       0.0230
     58 H21       -12.9699   24.9672  -11.8974 H           1 K26       0.0230
     59 H22        -7.5077   24.5753  -13.4490 H           1 K26       0.1883
     60 H23        -7.5432   21.2157  -14.5344 H           1 K26       0.0467
     61 H24        -6.5882   22.2043  -13.4121 H           1 K26       0.0467
     62 H25        -6.8871   22.7756  -15.0775 H           1 K26       0.0467
     63 H26       -11.4778   24.5656   -7.6531 H           1 K26       0.0453
     64 H27       -10.1223   23.8440   -8.4878 H           1 K26       0.0453
     65 H28       -10.5862   22.2216  -10.2280 H           1 K26       0.0530
     66 H29       -12.1454   20.9138  -11.5171 H           1 K26       0.0525
     67 H30       -14.6672   20.3965  -11.3442 H           1 K26       0.2458
     68 H31       -15.3144   23.3181  -10.1390 H           1 K26       0.0525
     69 H32       -13.7634   24.6220   -8.8308 H           1 K26       0.0530
@<TRIPOS>BOND
     1     1     2  ar
     2     1     7  ar
     3     2     3  ar
     4     3     4   1
     5     3     5  ar
     6     5     6  ar
     7     6     7  ar
     8     7     8   1
     9     8     9   1
    10     9    10   1
    11     9    14   1
    12    10    11  ar
    13    10    12  ar
    14    10    13  ar
    15    14    15  am
    16    15    16   2
    17    15    17   1
    18    17    18   1
    19    17    30   1
    20    18    19  am
    21    19    20   2
    22    19    21   1
    23    21    22   1
    24    21    26   1
    25    22    23   1
    26    22    24   1
    27    24    25   1
    28    26    27  am
    29    27    28   1
    30    27    29   2
    31    30    31   1
    32    31    32  ar
    33    31    37  ar
    34    32    33  ar
    35    33    34  ar
    36    34    35   1
    37    34    36  ar
    38    36    37  ar
    39     1    38   1
    40     2    39   1
    41     4    40   1
    42     5    41   1
    43     6    42   1
    44     8    43   1
    45     8    44   1
    46     9    45   1
    47    14    46   1
    48    17    47   1
    49    18    48   1
    50    21    49   1
    51    22    50   1
    52    23    51   1
    53    23    52   1
    54    23    53   1
    55    24    54   1
    56    24    55   1
    57    25    56   1
    58    25    57   1
    59    25    58   1
    60    26    59   1
    61    28    60   1
    62    28    61   1
    63    28    62   1
    64    30    63   1
    65    30    64   1
    66    32    65   1
    67    33    66   1
    68    35    67   1
    69    36    68   1
    70    37    69   1
@<TRIPOS>SUBSTRUCTURE
     1  K26      1

