@<TRIPOS>MOLECULE
2xhm_ligand_063
    69    70
SMALL
GAST_HUCK
****
This file was generated by PARSER (from files_GN.cpp)

@<TRIPOS>ATOM
      1 CAR        -9.9571   24.4023   -9.6744 C.ar        1 K26      -0.0686
      2 CAN        -9.0554   25.4822   -9.6297 C.ar        1 K26      -0.0398
      3 CBD        -9.3997   26.6597   -8.9443 C.ar        1 K26       0.0805
      4 OAI        -8.5299   27.6960   -8.8990 O.3         1 K26      -0.3376
      5 CAO       -10.6466   26.7531   -8.2974 C.ar        1 K26      -0.0398
      6 CAS       -11.5513   25.6797   -8.3551 C.ar        1 K26      -0.0686
      7 CBF       -11.2268   24.4912   -9.0537 C.ar        1 K26      -0.0501
      8 CAV       -12.1838   23.3484   -9.0900 C.3         1 K26       0.0145
      9 CBI       -13.1905   23.3399  -10.2887 C.3         1 K26       0.1207
     10 PBK       -12.6694   22.4528  -11.6128 P.3         1 K26       0.0863
     11 OAJ       -12.0238   23.3272  -12.5689 O.co2       1 K26      -0.5606
     12 OAK       -11.7188   21.4110  -11.3072 O.co2       1 K26      -0.5606
     13 OAG       -13.7695   21.8473  -12.3253 O.co2       1 K26      -0.5606
     14 NAY       -14.4637   22.8717   -9.8016 N.am        1 K26      -0.2653
     15 C         -15.6404   22.9286  -10.4170 C.2         1 K26       0.2049
     16 O         -15.7250   23.4204  -11.5363 O.2         1 K26      -0.3943
     17 CA        -16.8382   22.3785   -9.7781 C.3         1 K26       0.1389
     18 N         -18.0494   22.5134  -10.5603 N.am        1 K26      -0.2621
     19 CBB       -18.7274   23.6361  -10.7927 C.2         1 K26       0.2043
     20 OAF       -18.3051   24.7032  -10.3622 O.2         1 K26      -0.3944
     21 CBJ       -19.9843   23.6294  -11.5352 C.3         1 K26       0.1334
     22 CBG       -21.2165   22.9915  -10.7759 C.3         1 K26      -0.0037
     23 CAC       -21.4555   21.4877  -11.0807 C.3         1 K26      -0.0582
     24 CAT       -21.2974   23.3081   -9.2428 C.3         1 K26      -0.0491
     25 CAA       -20.6914   22.2829   -8.2448 C.3         1 K26      -0.0648
     26 NAX       -19.7495   23.0441  -12.8329 N.am        1 K26      -0.2656
     27 CAZ       -20.4608   23.2279  -13.9366 C.2         1 K26       0.1751
     28 CAB       -20.1140   22.4804  -15.1255 C.3         1 K26       0.0258
     29 OAD       -21.4060   24.0113  -13.9730 O.2         1 K26      -0.3972
     30 CB        -16.6302   20.8685   -9.4459 C.3         1 K26       0.0163
     31 CG        -17.7174   20.3119   -8.5977 C.ar        1 K26      -0.0493
     32 CD1       -18.8486   19.6978   -9.1822 C.ar        1 K26      -0.0685
     33 CE1       -19.9298   19.2953   -8.3828 C.ar        1 K26      -0.0398
     34 CZ        -19.8675   19.4164   -6.9834 C.ar        1 K26       0.0805
     35 OH        -20.8968   18.9999   -6.2010 O.3         1 K26      -0.3376
     36 CE2       -18.7323   19.9931   -6.3867 C.ar        1 K26      -0.0398
     37 CD2       -17.6722   20.4523   -7.1873 C.ar        1 K26      -0.0685
     38 H1         -9.6742   23.5499  -10.1586 H           1 K26       0.0530
     39 H2         -8.1458   25.4050  -10.0930 H           1 K26       0.0525
     40 H3         -8.8442   28.3119   -9.5948 H           1 K26       0.2458
     41 H4        -10.8934   27.6006   -7.7824 H           1 K26       0.0525
     42 H5        -12.4510   25.7687   -7.8762 H           1 K26       0.0530
     43 H6        -12.7652   23.3615   -8.1643 H           1 K26       0.0442
     44 H7        -11.6260   22.4077   -9.0661 H           1 K26       0.0442
     45 H8        -13.3208   24.3787  -10.6099 H           1 K26       0.0771
     46 H9        -14.4575   22.4876   -8.9074 H           1 K26       0.1870
     47 H10       -16.9810   22.9172   -8.8396 H           1 K26       0.0821
     48 H11       -18.4317   21.6955  -10.9179 H           1 K26       0.1885
     49 H12       -20.2461   24.6804  -11.7146 H           1 K26       0.0803
     50 H13       -22.0916   23.4927  -11.2058 H           1 K26       0.0345
     51 H14       -22.2989   21.1034  -10.4927 H           1 K26       0.0235
     52 H15       -20.5610   20.8879  -10.8507 H           1 K26       0.0235
     53 H16       -21.7006   21.3560  -12.1409 H           1 K26       0.0235
     54 H17       -22.3548   23.4125   -8.9744 H           1 K26       0.0267
     55 H18       -20.8219   24.2731   -9.0644 H           1 K26       0.0267
     56 H19       -20.8272   22.6590   -7.2237 H           1 K26       0.0230
     57 H20       -19.6203   22.1551   -8.4153 H           1 K26       0.0230
     58 H21       -21.1797   21.2981   -8.3203 H           1 K26       0.0230
     59 H22       -18.9946   22.4342  -12.9102 H           1 K26       0.1883
     60 H23       -20.7707   22.7285  -15.9629 H           1 K26       0.0467
     61 H24       -20.2068   21.4112  -14.9226 H           1 K26       0.0467
     62 H25       -19.0848   22.7010  -15.4172 H           1 K26       0.0467
     63 H26       -15.6868   20.7147   -8.9143 H           1 K26       0.0453
     64 H27       -16.5515   20.3174  -10.3878 H           1 K26       0.0453
     65 H28       -18.9000   19.5682  -10.1932 H           1 K26       0.0530
     66 H29       -20.7442   18.8633   -8.8290 H           1 K26       0.0525
     67 H30       -21.1389   18.1182   -6.5500 H           1 K26       0.2458
     68 H31       -18.6825   20.0981   -5.3722 H           1 K26       0.0525
     69 H32       -16.8590   20.8838   -6.7378 H           1 K26       0.0530
@<TRIPOS>BOND
     1     1     2  ar
     2     1     7  ar
     3     2     3  ar
     4     3     4   1
     5     3     5  ar
     6     5     6  ar
     7     6     7  ar
     8     7     8   1
     9     8     9   1
    10     9    10   1
    11     9    14   1
    12    10    11  ar
    13    10    12  ar
    14    10    13  ar
    15    14    15  am
    16    15    16   2
    17    15    17   1
    18    17    18   1
    19    17    30   1
    20    18    19  am
    21    19    20   2
    22    19    21   1
    23    21    22   1
    24    21    26   1
    25    22    23   1
    26    22    24   1
    27    24    25   1
    28    26    27  am
    29    27    28   1
    30    27    29   2
    31    30    31   1
    32    31    32  ar
    33    31    37  ar
    34    32    33  ar
    35    33    34  ar
    36    34    35   1
    37    34    36  ar
    38    36    37  ar
    39     1    38   1
    40     2    39   1
    41     4    40   1
    42     5    41   1
    43     6    42   1
    44     8    43   1
    45     8    44   1
    46     9    45   1
    47    14    46   1
    48    17    47   1
    49    18    48   1
    50    21    49   1
    51    22    50   1
    52    23    51   1
    53    23    52   1
    54    23    53   1
    55    24    54   1
    56    24    55   1
    57    25    56   1
    58    25    57   1
    59    25    58   1
    60    26    59   1
    61    28    60   1
    62    28    61   1
    63    28    62   1
    64    30    63   1
    65    30    64   1
    66    32    65   1
    67    33    66   1
    68    35    67   1
    69    36    68   1
    70    37    69   1
@<TRIPOS>SUBSTRUCTURE
     1  K26      1

