@<TRIPOS>MOLECULE
2xhm_ligand_007
    69    70
SMALL
GAST_HUCK
****
This file was generated by PARSER (from files_GN.cpp)

@<TRIPOS>ATOM
      1 CAR       -23.3150   22.2750   -7.0528 C.ar        1 K26      -0.0686
      2 CAN       -23.7735   21.5888   -5.9159 C.ar        1 K26      -0.0398
      3 CBD       -23.0237   20.5234   -5.3890 C.ar        1 K26       0.0805
      4 OAI       -23.4509   19.8957   -4.2671 O.3         1 K26      -0.3376
      5 CAO       -21.8194   20.1402   -6.0094 C.ar        1 K26      -0.0398
      6 CAS       -21.3641   20.8251   -7.1518 C.ar        1 K26      -0.0686
      7 CBF       -22.0907   21.9206   -7.6721 C.ar        1 K26      -0.0501
      8 CAV       -21.5268   22.7511   -8.7764 C.3         1 K26       0.0145
      9 CBI       -20.2053   23.5551   -8.4741 C.3         1 K26       0.1207
     10 PBK       -19.8869   23.9621   -6.8807 P.3         1 K26       0.0863
     11 OAJ       -19.0682   25.1490   -6.8109 O.co2       1 K26      -0.5606
     12 OAK       -21.0885   24.2744   -6.1430 O.co2       1 K26      -0.5606
     13 OAG       -19.1869   22.9216   -6.1621 O.co2       1 K26      -0.5606
     14 NAY       -19.0689   22.8574   -9.0286 N.am        1 K26      -0.2653
     15 C         -18.0678   23.3657   -9.7505 C.2         1 K26       0.2049
     16 O         -17.9736   24.5816   -9.8845 O.2         1 K26      -0.3943
     17 CA        -17.0916   22.5396  -10.4694 C.3         1 K26       0.1389
     18 N         -15.7492   22.8743  -10.0492 N.am        1 K26      -0.2621
     19 CBB       -14.6328   22.6528  -10.7419 C.2         1 K26       0.2043
     20 OAF       -14.7021   22.0791  -11.8232 O.2         1 K26      -0.3944
     21 CBJ       -13.2927   22.9819  -10.2463 C.3         1 K26       0.1334
     22 CBG       -13.2179   23.9534   -9.0158 C.3         1 K26      -0.0037
     23 CAC       -11.8025   23.9421   -8.3686 C.3         1 K26      -0.0582
     24 CAT       -13.7971   25.3930   -9.2727 C.3         1 K26      -0.0491
     25 CAA       -12.7919   26.5523   -9.4886 C.3         1 K26      -0.0648
     26 NAX       -12.4918   23.5160  -11.3161 N.am        1 K26      -0.2656
     27 CAZ       -11.4038   22.9648  -11.8441 C.2         1 K26       0.1751
     28 CAB       -10.6985   23.6836  -12.8801 C.3         1 K26       0.0258
     29 OAD       -10.9688   21.8846  -11.4688 O.2         1 K26      -0.3972
     30 CB        -17.3196   20.9912  -10.4012 C.3         1 K26       0.0163
     31 CG        -18.5626   20.4301  -11.0115 C.ar        1 K26      -0.0493
     32 CD1       -18.9912   19.1393  -10.6187 C.ar        1 K26      -0.0685
     33 CE1       -20.1258   18.5396  -11.1915 C.ar        1 K26      -0.0398
     34 CZ        -20.8371   19.2138  -12.1961 C.ar        1 K26       0.0805
     35 OH        -21.8895   18.6144  -12.7955 O.3         1 K26      -0.3376
     36 CE2       -20.4266   20.4910  -12.6124 C.ar        1 K26      -0.0398
     37 CD2       -19.2991   21.0887  -12.0251 C.ar        1 K26      -0.0685
     38 H1        -23.8691   23.0586   -7.4012 H           1 K26       0.0530
     39 H2        -24.6368   21.8877   -5.4534 H           1 K26       0.0525
     40 H3        -23.7239   19.0092   -4.5802 H           1 K26       0.2458
     41 H4        -21.2591   19.3844   -5.6121 H           1 K26       0.0525
     42 H5        -20.4788   20.5448   -7.5755 H           1 K26       0.0530
     43 H6        -22.2850   23.4680   -9.1030 H           1 K26       0.0442
     44 H7        -21.3733   22.0998   -9.6403 H           1 K26       0.0442
     45 H8        -20.3200   24.5145   -8.9930 H           1 K26       0.0771
     46 H9        -19.0696   21.8960   -8.9154 H           1 K26       0.1870
     47 H10       -17.1605   22.8351  -11.5194 H           1 K26       0.0821
     48 H11       -15.6642   23.3312   -9.1986 H           1 K26       0.1885
     49 H12       -12.8910   22.0180   -9.9175 H           1 K26       0.0803
     50 H13       -13.8538   23.4977   -8.2539 H           1 K26       0.0345
     51 H14       -11.7929   24.5615   -7.4704 H           1 K26       0.0235
     52 H15       -11.0468   24.3166   -9.0643 H           1 K26       0.0235
     53 H16       -11.5301   22.9252   -8.0760 H           1 K26       0.0235
     54 H17       -14.4247   25.6749   -8.4219 H           1 K26       0.0267
     55 H18       -14.4521   25.3758  -10.1474 H           1 K26       0.0267
     56 H19       -13.3285   27.4643   -9.7685 H           1 K26       0.0230
     57 H20       -12.0860   26.3118  -10.2854 H           1 K26       0.0230
     58 H21       -12.2388   26.7541   -8.5667 H           1 K26       0.0230
     59 H22       -12.7709   24.3682  -11.6895 H           1 K26       0.1883
     60 H23        -9.8120   23.1357  -13.2158 H           1 K26       0.0467
     61 H24       -10.3773   24.6561  -12.4983 H           1 K26       0.0467
     62 H25       -11.3573   23.8365  -13.7384 H           1 K26       0.0467
     63 H26       -17.2801   20.7071   -9.3465 H           1 K26       0.0453
     64 H27       -16.4835   20.4866  -10.8935 H           1 K26       0.0453
     65 H28       -18.4762   18.6189   -9.9117 H           1 K26       0.0530
     66 H29       -20.4140   17.6042  -10.9021 H           1 K26       0.0525
     67 H30       -21.6476   18.5878  -13.7466 H           1 K26       0.2458
     68 H31       -20.9355   20.9715  -13.3569 H           1 K26       0.0525
     69 H32       -19.0109   22.0045  -12.3672 H           1 K26       0.0530
@<TRIPOS>BOND
     1     1     2  ar
     2     1     7  ar
     3     2     3  ar
     4     3     4   1
     5     3     5  ar
     6     5     6  ar
     7     6     7  ar
     8     7     8   1
     9     8     9   1
    10     9    10   1
    11     9    14   1
    12    10    11  ar
    13    10    12  ar
    14    10    13  ar
    15    14    15  am
    16    15    16   2
    17    15    17   1
    18    17    18   1
    19    17    30   1
    20    18    19  am
    21    19    20   2
    22    19    21   1
    23    21    22   1
    24    21    26   1
    25    22    23   1
    26    22    24   1
    27    24    25   1
    28    26    27  am
    29    27    28   1
    30    27    29   2
    31    30    31   1
    32    31    32  ar
    33    31    37  ar
    34    32    33  ar
    35    33    34  ar
    36    34    35   1
    37    34    36  ar
    38    36    37  ar
    39     1    38   1
    40     2    39   1
    41     4    40   1
    42     5    41   1
    43     6    42   1
    44     8    43   1
    45     8    44   1
    46     9    45   1
    47    14    46   1
    48    17    47   1
    49    18    48   1
    50    21    49   1
    51    22    50   1
    52    23    51   1
    53    23    52   1
    54    23    53   1
    55    24    54   1
    56    24    55   1
    57    25    56   1
    58    25    57   1
    59    25    58   1
    60    26    59   1
    61    28    60   1
    62    28    61   1
    63    28    62   1
    64    30    63   1
    65    30    64   1
    66    32    65   1
    67    33    66   1
    68    35    67   1
    69    36    68   1
    70    37    69   1
@<TRIPOS>SUBSTRUCTURE
     1  K26      1

