@<TRIPOS>MOLECULE
2xhm_ligand_030
    69    70
SMALL
GAST_HUCK
****
This file was generated by PARSER (from files_GN.cpp)

@<TRIPOS>ATOM
      1 CAR        -4.0384   23.2695  -14.8949 C.ar        1 K26      -0.0686
      2 CAN        -2.8895   23.9163  -14.4079 C.ar        1 K26      -0.0398
      3 CBD        -2.5526   23.8309  -13.0428 C.ar        1 K26       0.0805
      4 OAI        -1.4562   24.4926  -12.5901 O.3         1 K26      -0.3376
      5 CAO        -3.3587   23.0702  -12.1741 C.ar        1 K26      -0.0398
      6 CAS        -4.5053   22.4176  -12.6623 C.ar        1 K26      -0.0686
      7 CBF        -4.8645   22.5166  -14.0281 C.ar        1 K26      -0.0501
      8 CAV        -6.1123   21.8742  -14.5355 C.3         1 K26       0.0145
      9 CBI        -7.3720   22.7676  -14.3060 C.3         1 K26       0.1207
     10 PBK        -8.7743   22.0990  -14.9181 P.3         1 K26       0.0863
     11 OAJ        -9.0920   20.8225  -14.3344 O.co2       1 K26      -0.5606
     12 OAK        -9.8907   22.9816  -14.6798 O.co2       1 K26      -0.5606
     13 OAG        -8.6672   21.9369  -16.3467 O.co2       1 K26      -0.5606
     14 NAY        -7.5671   22.9918  -12.9013 N.am        1 K26      -0.2653
     15 C          -7.6414   24.1668  -12.2818 C.2         1 K26       0.2049
     16 O          -7.5448   25.2210  -12.9037 O.2         1 K26      -0.3943
     17 CA         -7.8633   24.2205  -10.8416 C.3         1 K26       0.1389
     18 N          -9.1129   23.5861  -10.5165 N.am        1 K26      -0.2621
     19 CBB       -10.3242   23.9701  -10.8977 C.2         1 K26       0.2043
     20 OAF       -10.4619   24.9871  -11.5688 O.2         1 K26      -0.3944
     21 CBJ       -11.4987   23.2364  -10.4097 C.3         1 K26       0.1334
     22 CBG       -12.8880   23.6400  -11.0436 C.3         1 K26      -0.0037
     23 CAC       -12.9157   23.4156  -12.5822 C.3         1 K26      -0.0582
     24 CAT       -14.1245   22.9533  -10.3649 C.3         1 K26      -0.0491
     25 CAA       -14.2066   21.4140  -10.4739 C.3         1 K26      -0.0648
     26 NAX       -11.5750   23.2024   -8.9760 N.am        1 K26      -0.2656
     27 CAZ       -10.9552   23.9653   -8.0734 C.2         1 K26       0.1751
     28 CAB       -11.1705   23.7033   -6.6718 C.3         1 K26       0.0258
     29 OAD       -10.1627   24.8478   -8.3932 O.2         1 K26      -0.3972
     30 CB         -6.6809   23.5698  -10.0498 C.3         1 K26       0.0163
     31 CG         -6.5530   24.1019   -8.6643 C.ar        1 K26      -0.0493
     32 CD1        -5.4949   24.9767   -8.3153 C.ar        1 K26      -0.0685
     33 CE1        -5.4110   25.5249   -7.0204 C.ar        1 K26      -0.0398
     34 CZ         -6.3882   25.2106   -6.0589 C.ar        1 K26       0.0805
     35 OH         -6.2896   25.7322   -4.8134 O.3         1 K26      -0.3376
     36 CE2        -7.4440   24.3445   -6.3937 C.ar        1 K26      -0.0398
     37 CD2        -7.5172   23.7835   -7.6804 C.ar        1 K26      -0.0685
     38 H1         -4.2731   23.3537  -15.8871 H           1 K26       0.0530
     39 H2         -2.3061   24.4584  -15.0453 H           1 K26       0.0525
     40 H3         -1.1558   24.0146  -11.7864 H           1 K26       0.2458
     41 H4         -3.1203   22.9987  -11.1835 H           1 K26       0.0525
     42 H5         -5.0817   21.8794  -12.0136 H           1 K26       0.0530
     43 H6         -6.2493   20.8993  -14.0535 H           1 K26       0.0442
     44 H7         -5.9923   21.6720  -15.6082 H           1 K26       0.0442
     45 H8         -7.2155   23.7043  -14.8488 H           1 K26       0.0771
     46 H9         -7.6521   22.1981  -12.3448 H           1 K26       0.1870
     47 H10        -7.9232   25.2750  -10.5314 H           1 K26       0.0821
     48 H11        -9.0715   22.8114   -9.9368 H           1 K26       0.1885
     49 H12       -11.3225   22.1961  -10.6949 H           1 K26       0.0803
     50 H13       -13.0206   24.7087  -10.8705 H           1 K26       0.0345
     51 H14       -13.8922   23.6706  -12.9906 H           1 K26       0.0235
     52 H15       -12.6976   22.3777  -12.8278 H           1 K26       0.0235
     53 H16       -12.1815   24.0411  -13.0825 H           1 K26       0.0235
     54 H17       -15.0376   23.3623  -10.8033 H           1 K26       0.0267
     55 H18       -14.1521   23.2204   -9.3046 H           1 K26       0.0267
     56 H19       -15.0730   21.0577   -9.9084 H           1 K26       0.0230
     57 H20       -13.3131   20.9356  -10.0671 H           1 K26       0.0230
     58 H21       -14.3310   21.1044  -11.5140 H           1 K26       0.0230
     59 H22       -12.1896   22.5509   -8.5967 H           1 K26       0.1883
     60 H23       -10.5069   24.3133   -6.0428 H           1 K26       0.0467
     61 H24       -10.9758   22.6451   -6.4481 H           1 K26       0.0467
     62 H25       -12.2067   23.9348   -6.4059 H           1 K26       0.0467
     63 H26        -5.7458   23.7571  -10.5848 H           1 K26       0.0453
     64 H27        -6.7993   22.4818  -10.0116 H           1 K26       0.0453
     65 H28        -4.7840   25.2362   -9.0038 H           1 K26       0.0530
     66 H29        -4.6443   26.1565   -6.7860 H           1 K26       0.0525
     67 H30        -7.0703   26.3183   -4.7065 H           1 K26       0.2458
     68 H31        -8.1596   24.1138   -5.6996 H           1 K26       0.0525
     69 H32        -8.2854   23.1478   -7.9000 H           1 K26       0.0530
@<TRIPOS>BOND
     1     1     2  ar
     2     1     7  ar
     3     2     3  ar
     4     3     4   1
     5     3     5  ar
     6     5     6  ar
     7     6     7  ar
     8     7     8   1
     9     8     9   1
    10     9    10   1
    11     9    14   1
    12    10    11  ar
    13    10    12  ar
    14    10    13  ar
    15    14    15  am
    16    15    16   2
    17    15    17   1
    18    17    18   1
    19    17    30   1
    20    18    19  am
    21    19    20   2
    22    19    21   1
    23    21    22   1
    24    21    26   1
    25    22    23   1
    26    22    24   1
    27    24    25   1
    28    26    27  am
    29    27    28   1
    30    27    29   2
    31    30    31   1
    32    31    32  ar
    33    31    37  ar
    34    32    33  ar
    35    33    34  ar
    36    34    35   1
    37    34    36  ar
    38    36    37  ar
    39     1    38   1
    40     2    39   1
    41     4    40   1
    42     5    41   1
    43     6    42   1
    44     8    43   1
    45     8    44   1
    46     9    45   1
    47    14    46   1
    48    17    47   1
    49    18    48   1
    50    21    49   1
    51    22    50   1
    52    23    51   1
    53    23    52   1
    54    23    53   1
    55    24    54   1
    56    24    55   1
    57    25    56   1
    58    25    57   1
    59    25    58   1
    60    26    59   1
    61    28    60   1
    62    28    61   1
    63    28    62   1
    64    30    63   1
    65    30    64   1
    66    32    65   1
    67    33    66   1
    68    35    67   1
    69    36    68   1
    70    37    69   1
@<TRIPOS>SUBSTRUCTURE
     1  K26      1

