@<TRIPOS>MOLECULE
2xnb_ligand_024
    50    53
SMALL
GAST_HUCK
****
This file was generated by PARSER (from files_GN.cpp)

@<TRIPOS>ATOM
      1 C17        22.2879   24.0896   28.7991 C.3         1 Y8L       0.0648
      2 C18        21.6678   22.7097   28.4408 C.3         1 Y8L      -0.0139
      3 N19        22.2802   22.1540   27.2191 N.4         1 Y8L       0.2297
      4 C20        22.1871   23.0696   26.0683 C.3         1 Y8L      -0.0139
      5 C21        22.9259   24.3829   26.4146 C.3         1 Y8L       0.0648
      6 N16        22.4638   24.9662   27.6583 N.pl3       1 Y8L      -0.3045
      7 C12        22.7782   26.2614   27.9418 C.ar        1 Y8L       0.0297
      8 C13        24.1088   26.7328   27.8477 C.ar        1 Y8L      -0.0528
      9 C14        24.4226   28.0663   28.1349 C.ar        1 Y8L      -0.0489
     10 C11        21.7748   27.1670   28.3534 C.ar        1 Y8L      -0.0528
     11 C10        22.0850   28.5189   28.6024 C.ar        1 Y8L      -0.0489
     12 C9         23.4059   28.9968   28.4529 C.ar        1 Y8L       0.0527
     13 N7         23.6138   30.3339   28.6263 N.pl3       1 Y8L      -0.2529
     14 C4         24.4850   31.1242   27.9615 C.ar        1 Y8L       0.1821
     15 N5         25.3727   30.6595   27.0489 N.ar        1 Y8L      -0.2810
     16 N3         24.4419   32.4580   28.1838 N.ar        1 Y8L      -0.2768
     17 C2         25.2495   33.3233   27.5165 C.ar        1 Y8L      -0.0078
     18 C1         26.1775   32.8362   26.5720 C.ar        1 Y8L      -0.0412
     19 C6         26.2398   31.4433   26.3625 C.ar        1 Y8L       0.0192
     20 C15        27.1315   30.7959   25.4780 C.2         1 Y8L       0.0635
     21 S23        26.6590   29.4010   24.5931 S.3         1 Y8L       0.0011
     22 C24        28.1831   29.1613   23.8502 C.2         1 Y8L       0.2827
     23 O28        28.4170   28.2037   23.0784 O.2         1 Y8L      -0.3738
     24 N25        29.0407   30.1235   24.2836 N.am        1 Y8L      -0.1962
     25 C29        30.4144   30.1423   23.8620 C.3         1 Y8L       0.0552
     26 C26        28.4957   31.0213   25.1778 C.2         1 Y8L       0.0878
     27 C27        29.3202   32.0625   25.8519 C.3         1 Y8L       0.0050
     28 H1         23.2700   23.9109   29.2590 H           1 Y8L       0.0562
     29 H2         21.6484   24.5464   29.5597 H           1 Y8L       0.0562
     30 H3         20.5874   22.8181   28.2987 H           1 Y8L       0.0833
     31 H4         21.8329   22.0075   29.2658 H           1 Y8L       0.0833
     32 H5         21.8207   21.2702   26.9836 H           1 Y8L       0.2015
     33 H6         23.2699   21.9738   27.4040 H           1 Y8L       0.2015
     34 H7         21.1373   23.2775   25.8319 H           1 Y8L       0.0833
     35 H8         22.6525   22.6005   25.1971 H           1 Y8L       0.0833
     36 H9         22.7662   25.0851   25.5879 H           1 Y8L       0.0562
     37 H10        23.9970   24.1623   26.4699 H           1 Y8L       0.0562
     38 H11        24.8794   26.0998   27.6217 H           1 Y8L       0.0490
     39 H12        25.4033   28.3462   28.1036 H           1 Y8L       0.0507
     40 H13        20.8001   26.8625   28.4278 H           1 Y8L       0.0490
     41 H14        21.3280   29.1620   28.8519 H           1 Y8L       0.0507
     42 H15        22.9825   30.7907   29.2068 H           1 Y8L       0.2141
     43 H16        25.1845   34.3261   27.7047 H           1 Y8L       0.0819
     44 H17        26.7867   33.4743   26.0490 H           1 Y8L       0.0541
     45 H18        30.6472   29.3698   23.1266 H           1 Y8L       0.0582
     46 H19        31.0663   29.9811   24.7220 H           1 Y8L       0.0582
     47 H20        30.6528   31.1063   23.4082 H           1 Y8L       0.0582
     48 H21        28.7742   32.6225   26.6177 H           1 Y8L       0.0473
     49 H22        29.6934   32.7686   25.1039 H           1 Y8L       0.0473
     50 H23        30.1669   31.5743   26.3463 H           1 Y8L       0.0473
@<TRIPOS>BOND
     1     1     2   1
     2     1     6   1
     3     2     3   1
     4     3     4   1
     5     4     5   1
     6     5     6   1
     7     6     7   1
     8     7     8  ar
     9     7    10  ar
    10     8     9  ar
    11     9    12  ar
    12    10    11  ar
    13    11    12  ar
    14    12    13   1
    15    13    14   1
    16    14    15  ar
    17    14    16  ar
    18    15    19  ar
    19    16    17  ar
    20    17    18  ar
    21    18    19  ar
    22    19    20   1
    23    20    21   1
    24    20    26   2
    25    21    22   1
    26    22    23   2
    27    22    24  am
    28    24    25   1
    29    24    26   1
    30    26    27   1
    31     1    28   1
    32     1    29   1
    33     2    30   1
    34     2    31   1
    35     3    32   1
    36     3    33   1
    37     4    34   1
    38     4    35   1
    39     5    36   1
    40     5    37   1
    41     8    38   1
    42     9    39   1
    43    10    40   1
    44    11    41   1
    45    13    42   1
    46    17    43   1
    47    18    44   1
    48    25    45   1
    49    25    46   1
    50    25    47   1
    51    27    48   1
    52    27    49   1
    53    27    50   1
@<TRIPOS>SUBSTRUCTURE
     1  Y8L      1

