@<TRIPOS>MOLECULE
2xnb_ligand_023
    50    53
SMALL
GAST_HUCK
****
This file was generated by PARSER (from files_GN.cpp)

@<TRIPOS>ATOM
      1 C17        19.9857   26.6627   32.6140 C.3         1 Y8L       0.0648
      2 C18        20.5890   25.7989   33.7529 C.3         1 Y8L      -0.0139
      3 N19        20.2921   24.3638   33.5506 N.4         1 Y8L       0.2297
      4 C20        20.6046   23.8612   32.1937 C.3         1 Y8L      -0.0139
      5 C21        19.9855   24.7569   31.0812 C.3         1 Y8L       0.0648
      6 N16        20.3766   26.1334   31.3198 N.pl3       1 Y8L      -0.3045
      7 C12        21.1819   26.8202   30.4367 C.ar        1 Y8L       0.0297
      8 C13        21.0039   26.7314   29.0349 C.ar        1 Y8L      -0.0528
      9 C14        21.8514   27.4096   28.1376 C.ar        1 Y8L      -0.0489
     10 C11        22.2562   27.6240   30.9043 C.ar        1 Y8L      -0.0528
     11 C10        23.1185   28.2803   30.0158 C.ar        1 Y8L      -0.0489
     12 C9         22.9359   28.1638   28.6247 C.ar        1 Y8L       0.0527
     13 N7         23.7778   28.8088   27.7833 N.pl3       1 Y8L      -0.2529
     14 C4         24.9936   28.3450   27.4176 C.ar        1 Y8L       0.1821
     15 N5         25.8134   29.1761   26.7268 N.ar        1 Y8L      -0.2810
     16 N3         25.4518   27.1151   27.7674 N.ar        1 Y8L      -0.2768
     17 C2         26.7087   26.7160   27.4486 C.ar        1 Y8L      -0.0078
     18 C1         27.5779   27.5946   26.7692 C.ar        1 Y8L      -0.0412
     19 C6         27.0944   28.8677   26.3741 C.ar        1 Y8L       0.0192
     20 C15        27.8862   29.9030   25.7909 C.2         1 Y8L       0.0635
     21 S23        27.4673   31.5479   26.0805 S.3         1 Y8L       0.0011
     22 C24        28.8220   32.2162   25.2892 C.2         1 Y8L       0.2827
     23 O28        29.0201   33.4557   25.2125 O.2         1 Y8L      -0.3738
     24 N25        29.5878   31.1987   24.8035 N.am        1 Y8L      -0.1962
     25 C29        30.8267   31.4794   24.1180 C.3         1 Y8L       0.0552
     26 C26        29.0824   29.9317   25.0280 C.2         1 Y8L       0.0878
     27 C27        29.7489   28.7103   24.4841 C.3         1 Y8L       0.0050
     28 H1         20.2683   27.7088   32.7598 H           1 Y8L       0.0562
     29 H2         18.8943   26.6292   32.6929 H           1 Y8L       0.0562
     30 H3         20.1726   26.1132   34.7120 H           1 Y8L       0.0833
     31 H4         21.6712   25.9414   33.7900 H           1 Y8L       0.0833
     32 H5         19.2960   24.2088   33.7297 H           1 Y8L       0.2015
     33 H6         20.8390   23.8292   34.2302 H           1 Y8L       0.2015
     34 H7         20.2252   22.8422   32.0989 H           1 Y8L       0.0833
     35 H8         21.6916   23.8284   32.0733 H           1 Y8L       0.0833
     36 H9         18.8943   24.6713   31.1033 H           1 Y8L       0.0562
     37 H10        20.3297   24.3624   30.1218 H           1 Y8L       0.0562
     38 H11        20.2168   26.2062   28.6445 H           1 Y8L       0.0490
     39 H12        21.6818   27.3395   27.1285 H           1 Y8L       0.0507
     40 H13        22.4665   27.6767   31.8994 H           1 Y8L       0.0490
     41 H14        23.9004   28.8309   30.3820 H           1 Y8L       0.0507
     42 H15        23.5693   29.7232   27.5541 H           1 Y8L       0.2141
     43 H16        27.0514   25.7945   27.7456 H           1 Y8L       0.0819
     44 H17        28.5540   27.3176   26.6387 H           1 Y8L       0.0541
     45 H18        31.0634   32.5487   24.0626 H           1 Y8L       0.0582
     46 H19        30.7824   31.1060   23.0924 H           1 Y8L       0.0582
     47 H20        31.6579   30.9886   24.6344 H           1 Y8L       0.0582
     48 H21        29.0549   27.8698   24.3867 H           1 Y8L       0.0473
     49 H22        30.5833   28.4426   25.1404 H           1 Y8L       0.0473
     50 H23        30.1164   28.8999   23.4759 H           1 Y8L       0.0473
@<TRIPOS>BOND
     1     1     2   1
     2     1     6   1
     3     2     3   1
     4     3     4   1
     5     4     5   1
     6     5     6   1
     7     6     7   1
     8     7     8  ar
     9     7    10  ar
    10     8     9  ar
    11     9    12  ar
    12    10    11  ar
    13    11    12  ar
    14    12    13   1
    15    13    14   1
    16    14    15  ar
    17    14    16  ar
    18    15    19  ar
    19    16    17  ar
    20    17    18  ar
    21    18    19  ar
    22    19    20   1
    23    20    21   1
    24    20    26   2
    25    21    22   1
    26    22    23   2
    27    22    24  am
    28    24    25   1
    29    24    26   1
    30    26    27   1
    31     1    28   1
    32     1    29   1
    33     2    30   1
    34     2    31   1
    35     3    32   1
    36     3    33   1
    37     4    34   1
    38     4    35   1
    39     5    36   1
    40     5    37   1
    41     8    38   1
    42     9    39   1
    43    10    40   1
    44    11    41   1
    45    13    42   1
    46    17    43   1
    47    18    44   1
    48    25    45   1
    49    25    46   1
    50    25    47   1
    51    27    48   1
    52    27    49   1
    53    27    50   1
@<TRIPOS>SUBSTRUCTURE
     1  Y8L      1

