@<TRIPOS>MOLECULE
2xnb_ligand_004
    50    53
SMALL
GAST_HUCK
****
This file was generated by PARSER (from files_GN.cpp)

@<TRIPOS>ATOM
      1 C17        25.4725   21.7431   22.9935 C.3         1 Y8L       0.0648
      2 C18        25.3695   20.8981   21.7010 C.3         1 Y8L      -0.0139
      3 N19        26.5718   21.1035   20.8625 N.4         1 Y8L       0.2297
      4 C20        26.8016   22.5225   20.5263 C.3         1 Y8L      -0.0139
      5 C21        26.9086   23.3617   21.8245 C.3         1 Y8L       0.0648
      6 N16        25.7815   23.1284   22.7022 N.pl3       1 Y8L      -0.3045
      7 C12        25.5014   24.0176   23.6891 C.ar        1 Y8L       0.0297
      8 C13        26.4839   24.4401   24.6261 C.ar        1 Y8L      -0.0528
      9 C14        26.1413   25.2947   25.6838 C.ar        1 Y8L      -0.0489
     10 C11        24.1699   24.4866   23.8428 C.ar        1 Y8L      -0.0528
     11 C10        23.8328   25.3475   24.8990 C.ar        1 Y8L      -0.0489
     12 C9         24.8145   25.7736   25.8277 C.ar        1 Y8L       0.0527
     13 N7         24.4428   26.5471   26.8794 N.pl3       1 Y8L      -0.2529
     14 C4         25.0244   27.7119   27.2412 C.ar        1 Y8L       0.1821
     15 N5         26.0301   28.3014   26.5401 N.ar        1 Y8L      -0.2810
     16 N3         24.5443   28.3476   28.3399 N.ar        1 Y8L      -0.2768
     17 C2         25.0619   29.5224   28.7734 C.ar        1 Y8L      -0.0078
     18 C1         26.1050   30.1346   28.0586 C.ar        1 Y8L      -0.0412
     19 C6         26.5730   29.5061   26.8816 C.ar        1 Y8L       0.0192
     20 C15        27.6333   30.0267   26.1045 C.2         1 Y8L       0.0635
     21 S23        28.8113   28.9991   25.3815 S.3         1 Y8L       0.0011
     22 C24        29.7491   30.2617   24.7051 C.2         1 Y8L       0.2827
     23 O28        30.7994   30.0611   24.0469 O.2         1 Y8L      -0.3738
     24 N25        29.1568   31.4489   25.0052 N.am        1 Y8L      -0.1962
     25 C29        29.7250   32.6996   24.5679 C.3         1 Y8L       0.0552
     26 C26        27.9971   31.3486   25.7469 C.2         1 Y8L       0.0878
     27 C27        27.1709   32.5332   26.0955 C.3         1 Y8L       0.0050
     28 H1         26.2864   21.3413   23.6049 H           1 Y8L       0.0562
     29 H2         24.5393   21.6138   23.5533 H           1 Y8L       0.0562
     30 H3         24.4684   21.1831   21.1411 H           1 Y8L       0.0833
     31 H4         25.2853   19.8411   21.9673 H           1 Y8L       0.0833
     32 H5         26.4667   20.5618   20.0011 H           1 Y8L       0.2015
     33 H6         27.4013   20.7674   21.3527 H           1 Y8L       0.2015
     34 H7         25.9752   22.8847   19.8979 H           1 Y8L       0.0833
     35 H8         27.7310   22.6061   19.9571 H           1 Y8L       0.0833
     36 H9         26.9492   24.4153   21.5377 H           1 Y8L       0.0562
     37 H10        27.8365   23.0979   22.3377 H           1 Y8L       0.0562
     38 H11        27.4458   24.0830   24.5720 H           1 Y8L       0.0490
     39 H12        26.8654   25.5375   26.3703 H           1 Y8L       0.0507
     40 H13        23.4447   24.2250   23.1567 H           1 Y8L       0.0490
     41 H14        22.8670   25.6807   24.9898 H           1 Y8L       0.0507
     42 H15        23.6383   26.2969   27.3514 H           1 Y8L       0.2141
     43 H16        24.6889   29.9556   29.6241 H           1 Y8L       0.0819
     44 H17        26.5005   31.0172   28.3858 H           1 Y8L       0.0541
     45 H18        30.6787   32.5857   24.0451 H           1 Y8L       0.0582
     46 H19        29.8958   33.3453   25.4254 H           1 Y8L       0.0582
     47 H20        29.0359   33.2065   23.8970 H           1 Y8L       0.0582
     48 H21        26.1656   32.2638   26.4131 H           1 Y8L       0.0473
     49 H22        27.0674   33.1872   25.2309 H           1 Y8L       0.0473
     50 H23        27.6560   33.0963   26.8910 H           1 Y8L       0.0473
@<TRIPOS>BOND
     1     1     2   1
     2     1     6   1
     3     2     3   1
     4     3     4   1
     5     4     5   1
     6     5     6   1
     7     6     7   1
     8     7     8  ar
     9     7    10  ar
    10     8     9  ar
    11     9    12  ar
    12    10    11  ar
    13    11    12  ar
    14    12    13   1
    15    13    14   1
    16    14    15  ar
    17    14    16  ar
    18    15    19  ar
    19    16    17  ar
    20    17    18  ar
    21    18    19  ar
    22    19    20   1
    23    20    21   1
    24    20    26   2
    25    21    22   1
    26    22    23   2
    27    22    24  am
    28    24    25   1
    29    24    26   1
    30    26    27   1
    31     1    28   1
    32     1    29   1
    33     2    30   1
    34     2    31   1
    35     3    32   1
    36     3    33   1
    37     4    34   1
    38     4    35   1
    39     5    36   1
    40     5    37   1
    41     8    38   1
    42     9    39   1
    43    10    40   1
    44    11    41   1
    45    13    42   1
    46    17    43   1
    47    18    44   1
    48    25    45   1
    49    25    46   1
    50    25    47   1
    51    27    48   1
    52    27    49   1
    53    27    50   1
@<TRIPOS>SUBSTRUCTURE
     1  Y8L      1

