@<TRIPOS>MOLECULE
2xnb_ligand_016
    50    53
SMALL
GAST_HUCK
****
This file was generated by PARSER (from files_GN.cpp)

@<TRIPOS>ATOM
      1 C17        29.5197   23.1816   20.2862 C.3         1 Y8L       0.0648
      2 C18        29.5889   24.7168   20.0733 C.3         1 Y8L      -0.0139
      3 N19        28.8057   25.4247   21.1053 N.4         1 Y8L       0.2297
      4 C20        27.4044   24.9638   21.2155 C.3         1 Y8L      -0.0139
      5 C21        27.3673   23.4285   21.4168 C.3         1 Y8L       0.0648
      6 N16        28.1265   22.7505   20.3716 N.pl3       1 Y8L      -0.3045
      7 C12        27.5766   21.7811   19.5503 C.ar        1 Y8L       0.0297
      8 C13        28.3766   20.8783   18.7963 C.ar        1 Y8L      -0.0528
      9 C14        27.8091   19.8836   17.9799 C.ar        1 Y8L      -0.0489
     10 C11        26.1691   21.6475   19.3882 C.ar        1 Y8L      -0.0528
     11 C10        25.5940   20.6495   18.5832 C.ar        1 Y8L      -0.0489
     12 C9         26.4100   19.7372   17.8848 C.ar        1 Y8L       0.0527
     13 N7         25.9164   18.7480   17.0884 N.pl3       1 Y8L      -0.2529
     14 C4         24.7067   18.1374   17.1604 C.ar        1 Y8L       0.1821
     15 N5         24.4468   17.1757   16.2366 N.ar        1 Y8L      -0.2810
     16 N3         23.7718   18.3737   18.1187 N.ar        1 Y8L      -0.2768
     17 C2         22.6149   17.6630   18.1813 C.ar        1 Y8L      -0.0078
     18 C1         22.3652   16.6350   17.2441 C.ar        1 Y8L      -0.0412
     19 C6         23.3080   16.4305   16.2138 C.ar        1 Y8L       0.0192
     20 C15        23.1636   15.4663   15.1905 C.2         1 Y8L       0.0635
     21 S23        24.4143   15.2528   14.0284 S.3         1 Y8L       0.0011
     22 C24        23.6422   13.9824   13.1813 C.2         1 Y8L       0.2827
     23 O28        24.1747   13.4218   12.1966 O.2         1 Y8L      -0.3738
     24 N25        22.4429   13.7246   13.7835 N.am        1 Y8L      -0.1962
     25 C29        21.5748   12.6820   13.2742 C.3         1 Y8L       0.0552
     26 C26        22.1459   14.5261   14.8647 C.2         1 Y8L       0.0878
     27 C27        20.8547   14.4386   15.6077 C.3         1 Y8L       0.0050
     28 H1         30.0514   22.9238   21.2028 H           1 Y8L       0.0562
     29 H2         30.0848   22.7399   19.4665 H           1 Y8L       0.0562
     30 H3         29.1945   24.9787   19.0878 H           1 Y8L       0.0833
     31 H4         30.6263   25.0539   20.1258 H           1 Y8L       0.0833
     32 H5         28.8091   26.4202   20.8840 H           1 Y8L       0.2015
     33 H6         29.2656   25.2702   22.0062 H           1 Y8L       0.2015
     34 H7         26.8475   25.2400   20.3160 H           1 Y8L       0.0833
     35 H8         26.9398   25.4622   22.0716 H           1 Y8L       0.0833
     36 H9         26.3296   23.1201   21.5045 H           1 Y8L       0.0562
     37 H10        27.8147   23.1927   22.3841 H           1 Y8L       0.0562
     38 H11        29.3956   20.8826   18.8704 H           1 Y8L       0.0490
     39 H12        28.4262   19.2515   17.4634 H           1 Y8L       0.0507
     40 H13        25.5305   22.3204   19.8038 H           1 Y8L       0.0490
     41 H14        24.5782   20.6251   18.4676 H           1 Y8L       0.0507
     42 H15        26.5378   18.3786   16.4386 H           1 Y8L       0.2141
     43 H16        21.9405   17.8646   18.9245 H           1 Y8L       0.0819
     44 H17        21.5180   16.0441   17.3109 H           1 Y8L       0.0541
     45 H18        22.0103   12.1420   12.4271 H           1 Y8L       0.0582
     46 H19        20.6366   13.1229   12.9245 H           1 Y8L       0.0582
     47 H20        21.3678   11.9551   14.0688 H           1 Y8L       0.0582
     48 H21        20.5874   15.4136   16.0857 H           1 Y8L       0.0473
     49 H22        20.9468   13.6806   16.3822 H           1 Y8L       0.0473
     50 H23        20.0397   14.1649   14.9465 H           1 Y8L       0.0473
@<TRIPOS>BOND
     1     1     2   1
     2     1     6   1
     3     2     3   1
     4     3     4   1
     5     4     5   1
     6     5     6   1
     7     6     7   1
     8     7     8  ar
     9     7    10  ar
    10     8     9  ar
    11     9    12  ar
    12    10    11  ar
    13    11    12  ar
    14    12    13   1
    15    13    14   1
    16    14    15  ar
    17    14    16  ar
    18    15    19  ar
    19    16    17  ar
    20    17    18  ar
    21    18    19  ar
    22    19    20   1
    23    20    21   1
    24    20    26   2
    25    21    22   1
    26    22    23   2
    27    22    24  am
    28    24    25   1
    29    24    26   1
    30    26    27   1
    31     1    28   1
    32     1    29   1
    33     2    30   1
    34     2    31   1
    35     3    32   1
    36     3    33   1
    37     4    34   1
    38     4    35   1
    39     5    36   1
    40     5    37   1
    41     8    38   1
    42     9    39   1
    43    10    40   1
    44    11    41   1
    45    13    42   1
    46    17    43   1
    47    18    44   1
    48    25    45   1
    49    25    46   1
    50    25    47   1
    51    27    48   1
    52    27    49   1
    53    27    50   1
@<TRIPOS>SUBSTRUCTURE
     1  Y8L      1

