@<TRIPOS>MOLECULE
2xnb_ligand_018
    50    53
SMALL
GAST_HUCK
****
This file was generated by PARSER (from files_GN.cpp)

@<TRIPOS>ATOM
      1 C17        27.2086   23.3539   20.7390 C.3         1 Y8L       0.0648
      2 C18        27.6372   24.7589   20.2733 C.3         1 Y8L      -0.0139
      3 N19        28.1724   25.4798   21.4332 N.4         1 Y8L       0.2297
      4 C20        27.1218   25.7393   22.4336 C.3         1 Y8L      -0.0139
      5 C21        26.3012   24.4648   22.8077 C.3         1 Y8L       0.0648
      6 N16        26.3571   23.3023   21.9204 N.pl3       1 Y8L      -0.3045
      7 C12        25.6742   22.1286   22.2399 C.ar        1 Y8L       0.0297
      8 C13        24.6575   22.0822   23.2371 C.ar        1 Y8L      -0.0528
      9 C14        23.9342   20.9078   23.5194 C.ar        1 Y8L      -0.0489
     10 C11        25.9381   20.9000   21.5725 C.ar        1 Y8L      -0.0528
     11 C10        25.2147   19.7234   21.8371 C.ar        1 Y8L      -0.0489
     12 C9         24.2131   19.7253   22.8134 C.ar        1 Y8L       0.0527
     13 N7         23.5118   18.5880   23.0320 N.pl3       1 Y8L      -0.2529
     14 C4         23.4444   17.9249   24.2052 C.ar        1 Y8L       0.1821
     15 N5         24.1075   18.2867   25.3387 N.ar        1 Y8L      -0.2810
     16 N3         22.7213   16.7828   24.2258 N.ar        1 Y8L      -0.2768
     17 C2         22.6202   16.0238   25.3394 C.ar        1 Y8L      -0.0078
     18 C1         23.2924   16.4118   26.5089 C.ar        1 Y8L      -0.0412
     19 C6         24.0692   17.5952   26.5102 C.ar        1 Y8L       0.0192
     20 C15        24.8360   18.0067   27.6449 C.2         1 Y8L       0.0635
     21 S23        25.1762   16.9239   28.9361 S.3         1 Y8L       0.0011
     22 C24        26.1246   18.0020   29.8546 C.2         1 Y8L       0.2827
     23 O28        26.6324   17.6802   30.9525 O.2         1 Y8L      -0.3738
     24 N25        26.2004   19.1787   29.1885 N.am        1 Y8L      -0.1962
     25 C29        26.9540   20.2839   29.7296 C.3         1 Y8L       0.0552
     26 C26        25.5022   19.2125   27.9939 C.2         1 Y8L       0.0878
     27 C27        25.4739   20.4480   27.1652 C.3         1 Y8L       0.0050
     28 H1         28.1114   22.7772   20.9441 H           1 Y8L       0.0562
     29 H2         26.6934   22.9039   19.8865 H           1 Y8L       0.0562
     30 H3         26.7856   25.2932   19.8391 H           1 Y8L       0.0833
     31 H4         28.4158   24.6849   19.5149 H           1 Y8L       0.0833
     32 H5         28.5759   26.3637   21.1072 H           1 Y8L       0.2015
     33 H6         28.9086   24.9117   21.8658 H           1 Y8L       0.2015
     34 H7         26.4552   26.5079   22.0340 H           1 Y8L       0.0833
     35 H8         27.5987   26.1550   23.3245 H           1 Y8L       0.0833
     36 H9         25.2651   24.7942   22.9042 H           1 Y8L       0.0562
     37 H10        26.6454   24.1388   23.7966 H           1 Y8L       0.0562
     38 H11        24.3941   22.9109   23.7679 H           1 Y8L       0.0490
     39 H12        23.1886   20.9313   24.2201 H           1 Y8L       0.0507
     40 H13        26.6829   20.8150   20.8846 H           1 Y8L       0.0490
     41 H14        25.4395   18.8654   21.3312 H           1 Y8L       0.0507
     42 H15        23.1211   18.1463   22.2602 H           1 Y8L       0.2141
     43 H16        22.0641   15.1683   25.3141 H           1 Y8L       0.0819
     44 H17        23.2045   15.8218   27.3343 H           1 Y8L       0.0541
     45 H18        27.4461   20.0459   30.6721 H           1 Y8L       0.0582
     46 H19        26.2955   21.1307   29.9199 H           1 Y8L       0.0582
     47 H20        27.7303   20.5862   29.0263 H           1 Y8L       0.0582
     48 H21        24.7411   20.4223   26.3722 H           1 Y8L       0.0473
     49 H22        26.4558   20.6129   26.7216 H           1 Y8L       0.0473
     50 H23        25.2209   21.3103   27.7802 H           1 Y8L       0.0473
@<TRIPOS>BOND
     1     1     2   1
     2     1     6   1
     3     2     3   1
     4     3     4   1
     5     4     5   1
     6     5     6   1
     7     6     7   1
     8     7     8  ar
     9     7    10  ar
    10     8     9  ar
    11     9    12  ar
    12    10    11  ar
    13    11    12  ar
    14    12    13   1
    15    13    14   1
    16    14    15  ar
    17    14    16  ar
    18    15    19  ar
    19    16    17  ar
    20    17    18  ar
    21    18    19  ar
    22    19    20   1
    23    20    21   1
    24    20    26   2
    25    21    22   1
    26    22    23   2
    27    22    24  am
    28    24    25   1
    29    24    26   1
    30    26    27   1
    31     1    28   1
    32     1    29   1
    33     2    30   1
    34     2    31   1
    35     3    32   1
    36     3    33   1
    37     4    34   1
    38     4    35   1
    39     5    36   1
    40     5    37   1
    41     8    38   1
    42     9    39   1
    43    10    40   1
    44    11    41   1
    45    13    42   1
    46    17    43   1
    47    18    44   1
    48    25    45   1
    49    25    46   1
    50    25    47   1
    51    27    48   1
    52    27    49   1
    53    27    50   1
@<TRIPOS>SUBSTRUCTURE
     1  Y8L      1

