@<TRIPOS>MOLECULE
2xnb_ligand_009
    50    53
SMALL
GAST_HUCK
****
This file was generated by PARSER (from files_GN.cpp)

@<TRIPOS>ATOM
      1 C17        19.2725   27.4368   33.3095 C.3         1 Y8L       0.0648
      2 C18        17.9384   27.5950   34.0722 C.3         1 Y8L      -0.0139
      3 N19        17.2812   26.2862   34.1662 N.4         1 Y8L       0.2297
      4 C20        16.9253   25.7413   32.8470 C.3         1 Y8L      -0.0139
      5 C21        18.0828   25.8200   31.7972 C.3         1 Y8L       0.0648
      6 N16        19.2467   26.6737   32.0695 N.pl3       1 Y8L      -0.3045
      7 C12        20.3194   26.7325   31.1888 C.ar        1 Y8L       0.0297
      8 C13        21.6509   27.0220   31.6236 C.ar        1 Y8L      -0.0528
      9 C14        22.7361   27.1347   30.7441 C.ar        1 Y8L      -0.0489
     10 C11        20.1892   26.5194   29.7794 C.ar        1 Y8L      -0.0528
     11 C10        21.2660   26.6496   28.8898 C.ar        1 Y8L      -0.0489
     12 C9         22.5548   26.9991   29.3529 C.ar        1 Y8L       0.0527
     13 N7         23.5609   27.1282   28.4385 N.pl3       1 Y8L      -0.2529
     14 C4         24.4745   28.1264   28.3638 C.ar        1 Y8L       0.1821
     15 N5         25.5034   28.0184   27.4903 N.ar        1 Y8L      -0.2810
     16 N3         24.4170   29.2398   29.1354 N.ar        1 Y8L      -0.2768
     17 C2         25.3523   30.2138   29.0740 C.ar        1 Y8L      -0.0078
     18 C1         26.4379   30.0688   28.1972 C.ar        1 Y8L      -0.0412
     19 C6         26.5161   28.9194   27.3657 C.ar        1 Y8L       0.0192
     20 C15        27.5977   28.7180   26.4435 C.2         1 Y8L       0.0635
     21 S23        28.6380   29.9965   25.9349 S.3         1 Y8L       0.0011
     22 C24        29.6000   29.0628   24.8763 C.2         1 Y8L       0.2827
     23 O28        30.5573   29.5420   24.2247 O.2         1 Y8L      -0.3738
     24 N25        29.1391   27.7866   24.8940 N.am        1 Y8L      -0.1962
     25 C29        29.7394   26.7612   24.0723 C.3         1 Y8L       0.0552
     26 C26        28.0745   27.5699   25.7511 C.2         1 Y8L       0.0878
     27 C27        27.5245   26.2002   25.9235 C.3         1 Y8L       0.0050
     28 H1         19.9917   26.9640   33.9775 H           1 Y8L       0.0562
     29 H2         19.6020   28.4548   33.1028 H           1 Y8L       0.0562
     30 H3         17.2892   28.3185   33.5739 H           1 Y8L       0.0833
     31 H4         18.1372   27.9583   35.0821 H           1 Y8L       0.0833
     32 H5         16.4351   26.3783   34.7277 H           1 Y8L       0.2015
     33 H6         17.9176   25.6321   34.6257 H           1 Y8L       0.2015
     34 H7         16.0504   26.2833   32.4756 H           1 Y8L       0.0833
     35 H8         16.6237   24.7015   32.9926 H           1 Y8L       0.0833
     36 H9         17.6189   26.1506   30.8621 H           1 Y8L       0.0562
     37 H10        18.4437   24.7931   31.6482 H           1 Y8L       0.0562
     38 H11        21.8713   27.1299   32.6130 H           1 Y8L       0.0490
     39 H12        23.6672   27.3027   31.1304 H           1 Y8L       0.0507
     40 H13        19.2837   26.2768   29.3680 H           1 Y8L       0.0490
     41 H14        21.1105   26.4797   27.8904 H           1 Y8L       0.0507
     42 H15        23.6119   26.4431   27.7524 H           1 Y8L       0.2141
     43 H16        25.2729   31.0346   29.6751 H           1 Y8L       0.0819
     44 H17        27.1568   30.7924   28.1847 H           1 Y8L       0.0541
     45 H18        30.5394   27.1391   23.4320 H           1 Y8L       0.0582
     46 H19        28.9867   26.3164   23.4211 H           1 Y8L       0.0582
     47 H20        30.1667   25.9793   24.6996 H           1 Y8L       0.0582
     48 H21        26.8011   26.1014   26.7162 H           1 Y8L       0.0473
     49 H22        28.3388   25.5177   26.1676 H           1 Y8L       0.0473
     50 H23        27.0589   25.8795   24.9913 H           1 Y8L       0.0473
@<TRIPOS>BOND
     1     1     2   1
     2     1     6   1
     3     2     3   1
     4     3     4   1
     5     4     5   1
     6     5     6   1
     7     6     7   1
     8     7     8  ar
     9     7    10  ar
    10     8     9  ar
    11     9    12  ar
    12    10    11  ar
    13    11    12  ar
    14    12    13   1
    15    13    14   1
    16    14    15  ar
    17    14    16  ar
    18    15    19  ar
    19    16    17  ar
    20    17    18  ar
    21    18    19  ar
    22    19    20   1
    23    20    21   1
    24    20    26   2
    25    21    22   1
    26    22    23   2
    27    22    24  am
    28    24    25   1
    29    24    26   1
    30    26    27   1
    31     1    28   1
    32     1    29   1
    33     2    30   1
    34     2    31   1
    35     3    32   1
    36     3    33   1
    37     4    34   1
    38     4    35   1
    39     5    36   1
    40     5    37   1
    41     8    38   1
    42     9    39   1
    43    10    40   1
    44    11    41   1
    45    13    42   1
    46    17    43   1
    47    18    44   1
    48    25    45   1
    49    25    46   1
    50    25    47   1
    51    27    48   1
    52    27    49   1
    53    27    50   1
@<TRIPOS>SUBSTRUCTURE
     1  Y8L      1

