@<TRIPOS>MOLECULE
2xnb_ligand_007
    50    53
SMALL
GAST_HUCK
****
This file was generated by PARSER (from files_GN.cpp)

@<TRIPOS>ATOM
      1 C17        27.8850   25.8076   24.2668 C.3         1 Y8L       0.0648
      2 C18        28.3517   26.6794   23.0753 C.3         1 Y8L      -0.0139
      3 N19        28.4980   25.8434   21.8630 N.4         1 Y8L       0.2297
      4 C20        27.2895   25.0604   21.5214 C.3         1 Y8L      -0.0139
      5 C21        26.8457   24.1950   22.7299 C.3         1 Y8L       0.0648
      6 N16        26.7028   25.0537   23.8937 N.pl3       1 Y8L      -0.3045
      7 C12        25.5165   25.1649   24.5677 C.ar        1 Y8L       0.0297
      8 C13        24.8741   26.4198   24.7660 C.ar        1 Y8L      -0.0528
      9 C14        23.6730   26.5226   25.4815 C.ar        1 Y8L      -0.0489
     10 C11        24.8863   24.0242   25.1279 C.ar        1 Y8L      -0.0528
     11 C10        23.7198   24.1323   25.8837 C.ar        1 Y8L      -0.0489
     12 C9         23.0639   25.3834   26.0564 C.ar        1 Y8L       0.0527
     13 N7         21.9395   25.6029   26.8073 N.pl3       1 Y8L      -0.2529
     14 C4         20.9753   24.7370   27.2017 C.ar        1 Y8L       0.1821
     15 N5         20.8757   23.4500   26.7743 N.ar        1 Y8L      -0.2810
     16 N3         20.0605   25.1742   28.1073 N.ar        1 Y8L      -0.2768
     17 C2         19.0974   24.3659   28.6228 C.ar        1 Y8L      -0.0078
     18 C1         19.0248   23.0211   28.2158 C.ar        1 Y8L      -0.0412
     19 C6         19.9380   22.5871   27.2347 C.ar        1 Y8L       0.0192
     20 C15        19.9309   21.2813   26.7351 C.2         1 Y8L       0.0635
     21 S23        20.4417   19.9295   27.6566 S.3         1 Y8L       0.0011
     22 C24        20.2363   18.7966   26.3869 C.2         1 Y8L       0.2827
     23 O28        20.4958   17.5730   26.5125 O.2         1 Y8L      -0.3738
     24 N25        19.7769   19.4491   25.2832 N.am        1 Y8L      -0.1962
     25 C29        19.5021   18.7600   24.0475 C.3         1 Y8L       0.0552
     26 C26        19.6013   20.8064   25.4496 C.2         1 Y8L       0.0878
     27 C27        19.0833   21.7074   24.3820 C.3         1 Y8L       0.0050
     28 H1         27.7429   26.4427   25.1416 H           1 Y8L       0.0562
     29 H2         28.6829   25.1080   24.5380 H           1 Y8L       0.0562
     30 H3         29.3179   27.1320   23.3082 H           1 Y8L       0.0833
     31 H4         27.6290   27.4825   22.8901 H           1 Y8L       0.0833
     32 H5         29.2649   25.1835   22.0163 H           1 Y8L       0.2015
     33 H6         28.7383   26.4612   21.0860 H           1 Y8L       0.2015
     34 H7         27.5144   24.4126   20.6705 H           1 Y8L       0.0833
     35 H8         26.4807   25.7418   21.2311 H           1 Y8L       0.0833
     36 H9         27.5836   23.4092   22.9282 H           1 Y8L       0.0562
     37 H10        25.9174   23.6992   22.4403 H           1 Y8L       0.0562
     38 H11        25.2541   27.2749   24.3478 H           1 Y8L       0.0490
     39 H12        23.2449   27.4494   25.5871 H           1 Y8L       0.0507
     40 H13        25.3196   23.0995   25.0716 H           1 Y8L       0.0490
     41 H14        23.3949   23.2771   26.3303 H           1 Y8L       0.0507
     42 H15        21.8340   26.5113   27.1448 H           1 Y8L       0.2141
     43 H16        18.4355   24.7367   29.3093 H           1 Y8L       0.0819
     44 H17        18.3219   22.3870   28.6043 H           1 Y8L       0.0541
     45 H18        19.7047   17.6891   24.1009 H           1 Y8L       0.0582
     46 H19        20.1160   19.1666   23.2405 H           1 Y8L       0.0582
     47 H20        18.4502   18.8735   23.7799 H           1 Y8L       0.0582
     48 H21        18.9305   22.7296   24.7348 H           1 Y8L       0.0473
     49 H22        18.1216   21.3437   24.0202 H           1 Y8L       0.0473
     50 H23        19.7869   21.7370   23.5515 H           1 Y8L       0.0473
@<TRIPOS>BOND
     1     1     2   1
     2     1     6   1
     3     2     3   1
     4     3     4   1
     5     4     5   1
     6     5     6   1
     7     6     7   1
     8     7     8  ar
     9     7    10  ar
    10     8     9  ar
    11     9    12  ar
    12    10    11  ar
    13    11    12  ar
    14    12    13   1
    15    13    14   1
    16    14    15  ar
    17    14    16  ar
    18    15    19  ar
    19    16    17  ar
    20    17    18  ar
    21    18    19  ar
    22    19    20   1
    23    20    21   1
    24    20    26   2
    25    21    22   1
    26    22    23   2
    27    22    24  am
    28    24    25   1
    29    24    26   1
    30    26    27   1
    31     1    28   1
    32     1    29   1
    33     2    30   1
    34     2    31   1
    35     3    32   1
    36     3    33   1
    37     4    34   1
    38     4    35   1
    39     5    36   1
    40     5    37   1
    41     8    38   1
    42     9    39   1
    43    10    40   1
    44    11    41   1
    45    13    42   1
    46    17    43   1
    47    18    44   1
    48    25    45   1
    49    25    46   1
    50    25    47   1
    51    27    48   1
    52    27    49   1
    53    27    50   1
@<TRIPOS>SUBSTRUCTURE
     1  Y8L      1

