@<TRIPOS>MOLECULE
2xnb_ligand_005
    50    53
SMALL
GAST_HUCK
****
This file was generated by PARSER (from files_GN.cpp)

@<TRIPOS>ATOM
      1 C17        26.5294   22.8505   22.6329 C.3         1 Y8L       0.0648
      2 C18        26.2108   21.8689   21.4693 C.3         1 Y8L      -0.0139
      3 N19        26.3693   20.4689   21.9029 N.4         1 Y8L       0.2297
      4 C20        25.6263   20.1426   23.1360 C.3         1 Y8L      -0.0139
      5 C21        26.0242   21.1360   24.2548 C.3         1 Y8L       0.0648
      6 N16        25.7583   22.5107   23.8275 N.pl3       1 Y8L      -0.3045
      7 C12        24.8756   23.3863   24.4822 C.ar        1 Y8L       0.0297
      8 C13        23.9267   22.9314   25.4358 C.ar        1 Y8L      -0.0528
      9 C14        23.0752   23.8111   26.1510 C.ar        1 Y8L      -0.0489
     10 C11        24.8616   24.7898   24.2459 C.ar        1 Y8L      -0.0528
     11 C10        24.0028   25.6741   24.9383 C.ar        1 Y8L      -0.0489
     12 C9         23.1287   25.1912   25.9272 C.ar        1 Y8L       0.0527
     13 N7         22.3047   25.9890   26.6649 N.pl3       1 Y8L      -0.2529
     14 C4         22.6037   27.1875   27.2017 C.ar        1 Y8L       0.1821
     15 N5         23.7966   27.8247   27.0416 N.ar        1 Y8L      -0.2810
     16 N3         21.6843   27.7404   28.0291 N.ar        1 Y8L      -0.2768
     17 C2         21.9288   28.8910   28.6980 C.ar        1 Y8L      -0.0078
     18 C1         23.1717   29.5417   28.5513 C.ar        1 Y8L      -0.0412
     19 C6         24.1165   28.9979   27.6570 C.ar        1 Y8L       0.0192
     20 C15        25.4113   29.5450   27.4356 C.2         1 Y8L       0.0635
     21 S23        26.7620   28.5265   27.1388 S.3         1 Y8L       0.0011
     22 C24        27.9195   29.7846   27.0722 C.2         1 Y8L       0.2827
     23 O28        29.1339   29.5780   26.8514 O.2         1 Y8L      -0.3738
     24 N25        27.2850   30.9692   27.2749 N.am        1 Y8L      -0.1962
     25 C29        28.0148   32.2144   27.2930 C.3         1 Y8L       0.0552
     26 C26        25.9164   30.8687   27.4390 C.2         1 Y8L       0.0878
     27 C27        25.0609   32.0760   27.5686 C.3         1 Y8L       0.0050
     28 H1         26.3685   23.8497   22.2335 H           1 Y8L       0.0562
     29 H2         27.5952   22.7834   22.8635 H           1 Y8L       0.0562
     30 H3         26.8892   22.0469   20.6342 H           1 Y8L       0.0833
     31 H4         25.1889   22.0341   21.1219 H           1 Y8L       0.0833
     32 H5         27.3617   20.3116   22.0833 H           1 Y8L       0.2015
     33 H6         26.0695   19.8410   21.1508 H           1 Y8L       0.2015
     34 H7         25.8709   19.1175   23.4245 H           1 Y8L       0.0833
     35 H8         24.5506   20.2056   22.9600 H           1 Y8L       0.0833
     36 H9         27.0950   21.0263   24.4457 H           1 Y8L       0.0562
     37 H10        25.5527   20.8144   25.1792 H           1 Y8L       0.0562
     38 H11        23.7899   21.9456   25.6358 H           1 Y8L       0.0490
     39 H12        22.4311   23.4334   26.8523 H           1 Y8L       0.0507
     40 H13        25.4993   25.2343   23.5942 H           1 Y8L       0.0490
     41 H14        24.0160   26.6717   24.7098 H           1 Y8L       0.0507
     42 H15        21.4733   25.5832   26.9673 H           1 Y8L       0.2141
     43 H16        21.2206   29.2545   29.3346 H           1 Y8L       0.0819
     44 H17        23.3797   30.3589   29.1223 H           1 Y8L       0.0541
     45 H18        29.0918   32.0840   27.2315 H           1 Y8L       0.0582
     46 H19        27.8016   32.7526   28.2204 H           1 Y8L       0.0582
     47 H20        27.7061   32.8297   26.4467 H           1 Y8L       0.0582
     48 H21        24.0028   31.8660   27.4113 H           1 Y8L       0.0473
     49 H22        25.3369   32.8242   26.8250 H           1 Y8L       0.0473
     50 H23        25.1923   32.5060   28.5612 H           1 Y8L       0.0473
@<TRIPOS>BOND
     1     1     2   1
     2     1     6   1
     3     2     3   1
     4     3     4   1
     5     4     5   1
     6     5     6   1
     7     6     7   1
     8     7     8  ar
     9     7    10  ar
    10     8     9  ar
    11     9    12  ar
    12    10    11  ar
    13    11    12  ar
    14    12    13   1
    15    13    14   1
    16    14    15  ar
    17    14    16  ar
    18    15    19  ar
    19    16    17  ar
    20    17    18  ar
    21    18    19  ar
    22    19    20   1
    23    20    21   1
    24    20    26   2
    25    21    22   1
    26    22    23   2
    27    22    24  am
    28    24    25   1
    29    24    26   1
    30    26    27   1
    31     1    28   1
    32     1    29   1
    33     2    30   1
    34     2    31   1
    35     3    32   1
    36     3    33   1
    37     4    34   1
    38     4    35   1
    39     5    36   1
    40     5    37   1
    41     8    38   1
    42     9    39   1
    43    10    40   1
    44    11    41   1
    45    13    42   1
    46    17    43   1
    47    18    44   1
    48    25    45   1
    49    25    46   1
    50    25    47   1
    51    27    48   1
    52    27    49   1
    53    27    50   1
@<TRIPOS>SUBSTRUCTURE
     1  Y8L      1

