@<TRIPOS>MOLECULE
2xnb_ligand_036
    50    53
SMALL
GAST_HUCK
****
This file was generated by PARSER (from files_GN.cpp)

@<TRIPOS>ATOM
      1 C17        27.4197   30.7813   25.0394 C.3         1 Y8L       0.0648
      2 C18        28.9055   30.8407   24.5898 C.3         1 Y8L      -0.0139
      3 N19        29.7971   31.1968   25.7123 N.4         1 Y8L       0.2297
      4 C20        29.6048   30.3538   26.9117 C.3         1 Y8L      -0.0139
      5 C21        28.1117   30.3791   27.3356 C.3         1 Y8L       0.0648
      6 N16        27.2694   29.9442   26.2261 N.pl3       1 Y8L      -0.3045
      7 C12        26.4250   28.8384   26.2826 C.ar        1 Y8L       0.0297
      8 C13        26.5156   27.8580   27.3100 C.ar        1 Y8L      -0.0528
      9 C14        25.6550   26.7430   27.3647 C.ar        1 Y8L      -0.0489
     10 C11        25.4083   28.6203   25.3116 C.ar        1 Y8L      -0.0528
     11 C10        24.5711   27.4903   25.3340 C.ar        1 Y8L      -0.0489
     12 C9         24.6943   26.5342   26.3578 C.ar        1 Y8L       0.0527
     13 N7         23.9173   25.4177   26.3745 N.pl3       1 Y8L      -0.2529
     14 C4         23.9924   24.4275   25.4578 C.ar        1 Y8L       0.1821
     15 N5         24.8908   24.4283   24.4397 N.ar        1 Y8L      -0.2810
     16 N3         23.1571   23.3631   25.5779 N.ar        1 Y8L      -0.2768
     17 C2         23.1975   22.3323   24.6993 C.ar        1 Y8L      -0.0078
     18 C1         24.1200   22.3458   23.6399 C.ar        1 Y8L      -0.0412
     19 C6         25.0096   23.4413   23.5119 C.ar        1 Y8L       0.0192
     20 C15        26.0221   23.5132   22.5004 C.2         1 Y8L       0.0635
     21 S23        26.3108   22.2009   21.4250 S.3         1 Y8L       0.0011
     22 C24        27.6120   22.9207   20.5889 C.2         1 Y8L       0.2827
     23 O28        28.2171   22.3425   19.6550 O.2         1 Y8L      -0.3738
     24 N25        27.8440   24.1440   21.1265 N.am        1 Y8L      -0.1962
     25 C29        28.9049   24.9766   20.6212 C.3         1 Y8L       0.0552
     26 C26        26.9862   24.4983   22.1530 C.2         1 Y8L       0.0878
     27 C27        27.1228   25.8345   22.8040 C.3         1 Y8L       0.0050
     28 H1         26.8603   30.4417   24.1685 H           1 Y8L       0.0562
     29 H2         27.0687   31.7947   25.2729 H           1 Y8L       0.0562
     30 H3         29.0153   31.5880   23.8040 H           1 Y8L       0.0833
     31 H4         29.2050   29.8725   24.1828 H           1 Y8L       0.0833
     32 H5         29.6138   32.1682   25.9687 H           1 Y8L       0.2015
     33 H6         30.7666   31.1192   25.4028 H           1 Y8L       0.2015
     34 H7         30.2254   30.7384   27.7208 H           1 Y8L       0.0833
     35 H8         29.9156   29.3272   26.6968 H           1 Y8L       0.0833
     36 H9         27.8458   31.4093   27.5969 H           1 Y8L       0.0562
     37 H10        27.9865   29.8026   28.2581 H           1 Y8L       0.0562
     38 H11        27.2522   27.8929   28.0164 H           1 Y8L       0.0490
     39 H12        25.7683   26.0603   28.1160 H           1 Y8L       0.0507
     40 H13        25.2175   29.3040   24.5802 H           1 Y8L       0.0490
     41 H14        23.8605   27.3772   24.6052 H           1 Y8L       0.0507
     42 H15        23.3251   25.2873   27.1335 H           1 Y8L       0.2141
     43 H16        22.5554   21.5447   24.8143 H           1 Y8L       0.0819
     44 H17        24.1309   21.5571   22.9899 H           1 Y8L       0.0541
     45 H18        29.5155   24.4880   19.8585 H           1 Y8L       0.0582
     46 H19        29.5764   25.2682   21.4304 H           1 Y8L       0.0582
     47 H20        28.4815   25.8737   20.1692 H           1 Y8L       0.0582
     48 H21        26.3399   26.0717   23.5166 H           1 Y8L       0.0473
     49 H22        27.0883   26.6175   22.0486 H           1 Y8L       0.0473
     50 H23        28.0778   25.8895   23.3299 H           1 Y8L       0.0473
@<TRIPOS>BOND
     1     1     2   1
     2     1     6   1
     3     2     3   1
     4     3     4   1
     5     4     5   1
     6     5     6   1
     7     6     7   1
     8     7     8  ar
     9     7    10  ar
    10     8     9  ar
    11     9    12  ar
    12    10    11  ar
    13    11    12  ar
    14    12    13   1
    15    13    14   1
    16    14    15  ar
    17    14    16  ar
    18    15    19  ar
    19    16    17  ar
    20    17    18  ar
    21    18    19  ar
    22    19    20   1
    23    20    21   1
    24    20    26   2
    25    21    22   1
    26    22    23   2
    27    22    24  am
    28    24    25   1
    29    24    26   1
    30    26    27   1
    31     1    28   1
    32     1    29   1
    33     2    30   1
    34     2    31   1
    35     3    32   1
    36     3    33   1
    37     4    34   1
    38     4    35   1
    39     5    36   1
    40     5    37   1
    41     8    38   1
    42     9    39   1
    43    10    40   1
    44    11    41   1
    45    13    42   1
    46    17    43   1
    47    18    44   1
    48    25    45   1
    49    25    46   1
    50    25    47   1
    51    27    48   1
    52    27    49   1
    53    27    50   1
@<TRIPOS>SUBSTRUCTURE
     1  Y8L      1

