@<TRIPOS>MOLECULE
2xnb_ligand_017
    50    53
SMALL
GAST_HUCK
****
This file was generated by PARSER (from files_GN.cpp)

@<TRIPOS>ATOM
      1 C17        26.8450   23.3134   22.8658 C.3         1 Y8L       0.0648
      2 C18        26.7289   24.8481   22.6810 C.3         1 Y8L      -0.0139
      3 N19        27.7159   25.3339   21.6948 N.4         1 Y8L       0.2297
      4 C20        27.6475   24.6357   20.3926 C.3         1 Y8L      -0.0139
      5 C21        27.8073   23.1136   20.6203 C.3         1 Y8L       0.0648
      6 N16        26.8255   22.6304   21.5764 N.pl3       1 Y8L      -0.3045
      7 C12        25.9539   21.5974   21.2981 C.ar        1 Y8L       0.0297
      8 C13        25.5074   20.7279   22.3285 C.ar        1 Y8L      -0.0528
      9 C14        24.5991   19.6873   22.0792 C.ar        1 Y8L      -0.0489
     10 C11        25.4661   21.3342   19.9906 C.ar        1 Y8L      -0.0528
     11 C10        24.5675   20.2834   19.7318 C.ar        1 Y8L      -0.0489
     12 C9         24.0967   19.4714   20.7792 C.ar        1 Y8L       0.0527
     13 N7         23.2084   18.4768   20.4949 N.pl3       1 Y8L      -0.2529
     14 C4         22.1061   18.1614   21.2125 C.ar        1 Y8L       0.1821
     15 N5         21.6985   18.8614   22.3078 N.ar        1 Y8L      -0.2810
     16 N3         21.3452   17.1173   20.7966 N.ar        1 Y8L      -0.2768
     17 C2         20.2161   16.7526   21.4543 C.ar        1 Y8L      -0.0078
     18 C1         19.7977   17.4723   22.5889 C.ar        1 Y8L      -0.0412
     19 C6         20.5722   18.5766   23.0115 C.ar        1 Y8L       0.0192
     20 C15        20.2112   19.3740   24.1234 C.2         1 Y8L       0.0635
     21 S23        19.5033   18.7156   25.5404 S.3         1 Y8L       0.0011
     22 C24        19.4280   20.1956   26.3942 C.2         1 Y8L       0.2827
     23 O28        18.9608   20.2822   27.5531 O.2         1 Y8L      -0.3738
     24 N25        19.9282   21.1830   25.6066 N.am        1 Y8L      -0.1962
     25 C29        19.9630   22.5561   26.0475 C.3         1 Y8L       0.0552
     26 C26        20.3631   20.7616   24.3640 C.2         1 Y8L       0.0878
     27 C27        20.9006   21.7160   23.3538 C.3         1 Y8L       0.0050
     28 H1         26.0244   23.0257   23.5260 H           1 Y8L       0.0562
     29 H2         27.7800   23.0733   23.3783 H           1 Y8L       0.0562
     30 H3         26.9125   25.3428   23.6362 H           1 Y8L       0.0833
     31 H4         25.7199   25.1068   22.3495 H           1 Y8L       0.0833
     32 H5         28.6475   25.1747   22.0909 H           1 Y8L       0.2015
     33 H6         27.5775   26.3345   21.5330 H           1 Y8L       0.2015
     34 H7         28.4531   25.0068   19.7524 H           1 Y8L       0.0833
     35 H8         26.6928   24.8498   19.9025 H           1 Y8L       0.0833
     36 H9         28.8045   22.9374   21.0294 H           1 Y8L       0.0562
     37 H10        27.7879   22.6056   19.6578 H           1 Y8L       0.0562
     38 H11        25.8813   20.7987   23.2780 H           1 Y8L       0.0490
     39 H12        24.3277   19.0650   22.8449 H           1 Y8L       0.0507
     40 H13        25.7114   21.9469   19.2146 H           1 Y8L       0.0490
     41 H14        24.2267   20.1446   18.7778 H           1 Y8L       0.0507
     42 H15        23.3332   18.0004   19.6567 H           1 Y8L       0.2141
     43 H16        19.6687   15.9571   21.1147 H           1 Y8L       0.0819
     44 H17        18.9310   17.2120   23.0638 H           1 Y8L       0.0541
     45 H18        19.6181   22.6847   27.0756 H           1 Y8L       0.0582
     46 H19        19.3184   23.1645   25.4110 H           1 Y8L       0.0582
     47 H20        20.9817   22.9443   25.9926 H           1 Y8L       0.0582
     48 H21        21.0494   21.2693   22.3704 H           1 Y8L       0.0473
     49 H22        21.8577   22.1093   23.7029 H           1 Y8L       0.0473
     50 H23        20.2060   22.5481   23.2188 H           1 Y8L       0.0473
@<TRIPOS>BOND
     1     1     2   1
     2     1     6   1
     3     2     3   1
     4     3     4   1
     5     4     5   1
     6     5     6   1
     7     6     7   1
     8     7     8  ar
     9     7    10  ar
    10     8     9  ar
    11     9    12  ar
    12    10    11  ar
    13    11    12  ar
    14    12    13   1
    15    13    14   1
    16    14    15  ar
    17    14    16  ar
    18    15    19  ar
    19    16    17  ar
    20    17    18  ar
    21    18    19  ar
    22    19    20   1
    23    20    21   1
    24    20    26   2
    25    21    22   1
    26    22    23   2
    27    22    24  am
    28    24    25   1
    29    24    26   1
    30    26    27   1
    31     1    28   1
    32     1    29   1
    33     2    30   1
    34     2    31   1
    35     3    32   1
    36     3    33   1
    37     4    34   1
    38     4    35   1
    39     5    36   1
    40     5    37   1
    41     8    38   1
    42     9    39   1
    43    10    40   1
    44    11    41   1
    45    13    42   1
    46    17    43   1
    47    18    44   1
    48    25    45   1
    49    25    46   1
    50    25    47   1
    51    27    48   1
    52    27    49   1
    53    27    50   1
@<TRIPOS>SUBSTRUCTURE
     1  Y8L      1

