@<TRIPOS>MOLECULE
2xnb_ligand_040
    50    53
SMALL
GAST_HUCK
****
This file was generated by PARSER (from files_GN.cpp)

@<TRIPOS>ATOM
      1 C17        21.7234   23.2590   26.4987 C.3         1 Y8L       0.0648
      2 C18        21.6207   22.1959   25.3751 C.3         1 Y8L      -0.0139
      3 N19        20.3306   22.3031   24.6757 N.4         1 Y8L       0.2297
      4 C20        19.2128   22.0832   25.6017 C.3         1 Y8L      -0.0139
      5 C21        19.2166   23.1698   26.7084 C.3         1 Y8L       0.0648
      6 N16        20.5017   23.6820   27.1811 N.pl3       1 Y8L      -0.3045
      7 C12        20.5604   24.6117   28.2169 C.ar        1 Y8L       0.0297
      8 C13        19.3940   25.2406   28.7428 C.ar        1 Y8L      -0.0528
      9 C14        19.4339   26.1227   29.8364 C.ar        1 Y8L      -0.0489
     10 C11        21.7862   25.0065   28.8363 C.ar        1 Y8L      -0.0528
     11 C10        21.8389   25.8943   29.9253 C.ar        1 Y8L      -0.0489
     12 C9         20.6565   26.4305   30.4637 C.ar        1 Y8L       0.0527
     13 N7         20.7247   27.2605   31.5403 N.pl3       1 Y8L      -0.2529
     14 C4         20.1155   27.0587   32.7337 C.ar        1 Y8L       0.1821
     15 N5         19.4721   25.9003   33.0541 N.ar        1 Y8L      -0.2810
     16 N3         20.1746   28.0453   33.6622 N.ar        1 Y8L      -0.2768
     17 C2         19.5846   27.9211   34.8785 C.ar        1 Y8L      -0.0078
     18 C1         18.9084   26.7354   35.2114 C.ar        1 Y8L      -0.0412
     19 C6         18.8786   25.6951   34.2618 C.ar        1 Y8L       0.0192
     20 C15        18.2686   24.4543   34.5396 C.2         1 Y8L       0.0635
     21 S23        16.7239   24.3097   35.2732 S.3         1 Y8L       0.0011
     22 C24        16.6882   22.5983   35.2296 C.2         1 Y8L       0.2827
     23 O28        15.7226   21.9303   35.6607 O.2         1 Y8L      -0.3738
     24 N25        17.8458   22.1459   34.6760 N.am        1 Y8L      -0.1962
     25 C29        18.1180   20.7377   34.5218 C.3         1 Y8L       0.0552
     26 C26        18.7217   23.1392   34.2975 C.2         1 Y8L       0.0878
     27 C27        20.0685   22.8460   33.7392 C.3         1 Y8L       0.0050
     28 H1         22.1766   24.1515   26.0537 H           1 Y8L       0.0562
     29 H2         22.4208   22.8520   27.2370 H           1 Y8L       0.0562
     30 H3         21.7309   21.1907   25.7923 H           1 Y8L       0.0833
     31 H4         22.4240   22.3434   24.6528 H           1 Y8L       0.0833
     32 H5         20.2934   21.6162   23.9191 H           1 Y8L       0.2015
     33 H6         20.2493   23.2419   24.2849 H           1 Y8L       0.2015
     34 H7         19.2870   21.0844   26.0464 H           1 Y8L       0.0833
     35 H8         18.2755   22.1239   25.0387 H           1 Y8L       0.0833
     36 H9         18.6636   22.7469   27.5517 H           1 Y8L       0.0562
     37 H10        18.6513   24.0195   26.3176 H           1 Y8L       0.0562
     38 H11        18.4728   25.0737   28.3365 H           1 Y8L       0.0490
     39 H12        18.5638   26.5473   30.1693 H           1 Y8L       0.0507
     40 H13        22.6814   24.6374   28.5171 H           1 Y8L       0.0490
     41 H14        22.7439   26.1206   30.3480 H           1 Y8L       0.0507
     42 H15        21.3053   28.0361   31.4667 H           1 Y8L       0.2141
     43 H16        19.6482   28.6882   35.5493 H           1 Y8L       0.0819
     44 H17        18.4779   26.6301   36.1347 H           1 Y8L       0.0541
     45 H18        17.2935   20.1026   34.8545 H           1 Y8L       0.0582
     46 H19        18.9990   20.4595   35.1026 H           1 Y8L       0.0582
     47 H20        18.3026   20.5090   33.4687 H           1 Y8L       0.0582
     48 H21        20.6695   23.7420   33.5929 H           1 Y8L       0.0473
     49 H22        19.9622   22.3444   32.7762 H           1 Y8L       0.0473
     50 H23        20.6150   22.1951   34.4213 H           1 Y8L       0.0473
@<TRIPOS>BOND
     1     1     2   1
     2     1     6   1
     3     2     3   1
     4     3     4   1
     5     4     5   1
     6     5     6   1
     7     6     7   1
     8     7     8  ar
     9     7    10  ar
    10     8     9  ar
    11     9    12  ar
    12    10    11  ar
    13    11    12  ar
    14    12    13   1
    15    13    14   1
    16    14    15  ar
    17    14    16  ar
    18    15    19  ar
    19    16    17  ar
    20    17    18  ar
    21    18    19  ar
    22    19    20   1
    23    20    21   1
    24    20    26   2
    25    21    22   1
    26    22    23   2
    27    22    24  am
    28    24    25   1
    29    24    26   1
    30    26    27   1
    31     1    28   1
    32     1    29   1
    33     2    30   1
    34     2    31   1
    35     3    32   1
    36     3    33   1
    37     4    34   1
    38     4    35   1
    39     5    36   1
    40     5    37   1
    41     8    38   1
    42     9    39   1
    43    10    40   1
    44    11    41   1
    45    13    42   1
    46    17    43   1
    47    18    44   1
    48    25    45   1
    49    25    46   1
    50    25    47   1
    51    27    48   1
    52    27    49   1
    53    27    50   1
@<TRIPOS>SUBSTRUCTURE
     1  Y8L      1

