@<TRIPOS>MOLECULE
2xnb_ligand_037
    50    53
SMALL
GAST_HUCK
****
This file was generated by PARSER (from files_GN.cpp)

@<TRIPOS>ATOM
      1 C17        20.9398   26.4338   29.2799 C.3         1 Y8L       0.0648
      2 C18        21.6167   27.4707   30.1936 C.3         1 Y8L      -0.0139
      3 N19        22.0121   28.6049   29.3479 N.4         1 Y8L       0.2297
      4 C20        23.0712   28.2248   28.3983 C.3         1 Y8L      -0.0139
      5 C21        22.7075   26.9548   27.5702 C.3         1 Y8L       0.0648
      6 N16        21.6717   26.0514   28.0750 N.pl3       1 Y8L      -0.3045
      7 C12        21.2907   24.9338   27.3496 C.ar        1 Y8L       0.0297
      8 C13        19.9364   24.4850   27.3327 C.ar        1 Y8L      -0.0528
      9 C14        19.5225   23.4015   26.5488 C.ar        1 Y8L      -0.0489
     10 C11        22.1979   24.1739   26.5573 C.ar        1 Y8L      -0.0528
     11 C10        21.7868   23.0596   25.8058 C.ar        1 Y8L      -0.0489
     12 C9         20.4393   22.6404   25.7871 C.ar        1 Y8L       0.0527
     13 N7         20.1051   21.5830   24.9779 N.pl3       1 Y8L      -0.2529
     14 C4         19.0364   20.7496   25.0600 C.ar        1 Y8L       0.1821
     15 N5         18.1582   20.7802   26.0963 N.ar        1 Y8L      -0.2810
     16 N3         18.8193   19.8463   24.0646 N.ar        1 Y8L      -0.2768
     17 C2         17.7666   18.9905   24.0974 C.ar        1 Y8L      -0.0078
     18 C1         16.8432   19.0404   25.1554 C.ar        1 Y8L      -0.0412
     19 C6         17.0576   19.9898   26.1771 C.ar        1 Y8L       0.0192
     20 C15        16.1980   20.1813   27.2797 C.2         1 Y8L       0.0635
     21 S23        16.7672   20.1370   28.8977 S.3         1 Y8L       0.0011
     22 C24        15.2526   20.5054   29.6017 C.2         1 Y8L       0.2827
     23 O28        15.0841   20.5907   30.8381 O.2         1 Y8L      -0.3738
     24 N25        14.3383   20.7057   28.6171 N.am        1 Y8L      -0.1962
     25 C29        12.9784   21.0933   28.9049 C.3         1 Y8L       0.0552
     26 C26        14.8323   20.5317   27.3402 C.2         1 Y8L       0.0878
     27 C27        14.0110   20.7794   26.1316 C.3         1 Y8L       0.0050
     28 H1         19.9595   26.8476   28.9973 H           1 Y8L       0.0562
     29 H2         20.7636   25.5402   29.8906 H           1 Y8L       0.0562
     30 H3         22.4846   27.0240   30.6933 H           1 Y8L       0.0833
     31 H4         20.9206   27.8124   30.9592 H           1 Y8L       0.0833
     32 H5         22.3297   29.3796   29.9401 H           1 Y8L       0.2015
     33 H6         21.2026   28.9259   28.8255 H           1 Y8L       0.2015
     34 H7         23.9954   28.0433   28.9573 H           1 Y8L       0.0833
     35 H8         23.2572   29.0676   27.7316 H           1 Y8L       0.0833
     36 H9         23.6512   26.4143   27.4311 H           1 Y8L       0.0562
     37 H10        22.3819   27.2960   26.5742 H           1 Y8L       0.0562
     38 H11        19.1906   24.9854   27.8290 H           1 Y8L       0.0490
     39 H12        18.5181   23.2043   26.5330 H           1 Y8L       0.0507
     40 H13        23.1957   24.3904   26.5416 H           1 Y8L       0.0490
     41 H14        22.4891   22.5569   25.2523 H           1 Y8L       0.0507
     42 H15        20.7217   21.3988   24.2516 H           1 Y8L       0.2141
     43 H16        17.6348   18.3259   23.3291 H           1 Y8L       0.0819
     44 H17        16.0375   18.4052   25.1767 H           1 Y8L       0.0541
     45 H18        12.7724   21.1663   29.9758 H           1 Y8L       0.0582
     46 H19        12.2824   20.3617   28.4863 H           1 Y8L       0.0582
     47 H20        12.7719   22.0689   28.4655 H           1 Y8L       0.0582
     48 H21        14.5634   20.6532   25.2012 H           1 Y8L       0.0473
     49 H22        13.6272   21.8009   26.1536 H           1 Y8L       0.0473
     50 H23        13.1652   20.0857   26.1178 H           1 Y8L       0.0473
@<TRIPOS>BOND
     1     1     2   1
     2     1     6   1
     3     2     3   1
     4     3     4   1
     5     4     5   1
     6     5     6   1
     7     6     7   1
     8     7     8  ar
     9     7    10  ar
    10     8     9  ar
    11     9    12  ar
    12    10    11  ar
    13    11    12  ar
    14    12    13   1
    15    13    14   1
    16    14    15  ar
    17    14    16  ar
    18    15    19  ar
    19    16    17  ar
    20    17    18  ar
    21    18    19  ar
    22    19    20   1
    23    20    21   1
    24    20    26   2
    25    21    22   1
    26    22    23   2
    27    22    24  am
    28    24    25   1
    29    24    26   1
    30    26    27   1
    31     1    28   1
    32     1    29   1
    33     2    30   1
    34     2    31   1
    35     3    32   1
    36     3    33   1
    37     4    34   1
    38     4    35   1
    39     5    36   1
    40     5    37   1
    41     8    38   1
    42     9    39   1
    43    10    40   1
    44    11    41   1
    45    13    42   1
    46    17    43   1
    47    18    44   1
    48    25    45   1
    49    25    46   1
    50    25    47   1
    51    27    48   1
    52    27    49   1
    53    27    50   1
@<TRIPOS>SUBSTRUCTURE
     1  Y8L      1

