@<TRIPOS>MOLECULE
2xnb_ligand_011
    50    53
SMALL
GAST_HUCK
****
This file was generated by PARSER (from files_GN.cpp)

@<TRIPOS>ATOM
      1 C17        24.5323   22.3142   23.0038 C.3         1 Y8L       0.0648
      2 C18        26.0062   22.0330   22.6071 C.3         1 Y8L      -0.0139
      3 N19        26.2673   20.5815   22.5155 N.4         1 Y8L       0.2297
      4 C20        25.8311   19.8262   23.7109 C.3         1 Y8L      -0.0139
      5 C21        24.3554   20.1534   24.0596 C.3         1 Y8L       0.0648
      6 N16        24.1725   21.5994   24.2364 N.pl3       1 Y8L      -0.3045
      7 C12        23.7056   22.2039   25.4086 C.ar        1 Y8L       0.0297
      8 C13        23.4107   23.5991   25.5033 C.ar        1 Y8L      -0.0528
      9 C14        22.8962   24.2005   26.6679 C.ar        1 Y8L      -0.0489
     10 C11        23.4803   21.4796   26.6219 C.ar        1 Y8L      -0.0528
     11 C10        23.0046   22.0768   27.8011 C.ar        1 Y8L      -0.0489
     12 C9         22.6704   23.4407   27.8333 C.ar        1 Y8L       0.0527
     13 N7         22.1966   23.9762   28.9976 N.pl3       1 Y8L      -0.2529
     14 C4         20.9996   24.5855   29.1817 C.ar        1 Y8L       0.1821
     15 N5         20.7031   25.0472   30.4232 N.ar        1 Y8L      -0.2810
     16 N3         20.0650   24.7212   28.2011 N.ar        1 Y8L      -0.2768
     17 C2         18.8614   25.2960   28.4422 C.ar        1 Y8L      -0.0078
     18 C1         18.5497   25.7696   29.7289 C.ar        1 Y8L      -0.0412
     19 C6         19.5175   25.6378   30.7507 C.ar        1 Y8L       0.0192
     20 C15        19.3702   26.1705   32.0598 C.2         1 Y8L       0.0635
     21 S23        20.7221   26.2762   33.1068 S.3         1 Y8L       0.0011
     22 C24        19.8902   27.0385   34.3885 C.2         1 Y8L       0.2827
     23 O28        20.4429   27.3207   35.4733 O.2         1 Y8L      -0.3738
     24 N25        18.5941   27.2286   34.0256 N.am        1 Y8L      -0.1962
     25 C29        17.6655   27.8967   34.9074 C.3         1 Y8L       0.0552
     26 C26        18.2775   26.7297   32.7779 C.2         1 Y8L       0.0878
     27 C27        16.8841   26.7121   32.2704 C.3         1 Y8L       0.0050
     28 H1         23.8846   21.9714   22.1915 H           1 Y8L       0.0562
     29 H2         24.4271   23.3867   23.0149 H           1 Y8L       0.0562
     30 H3         26.6837   22.4760   23.3441 H           1 Y8L       0.0833
     31 H4         26.2242   22.4814   21.6352 H           1 Y8L       0.0833
     32 H5         27.2721   20.4343   22.3908 H           1 Y8L       0.2015
     33 H6         25.7796   20.2107   21.6992 H           1 Y8L       0.2015
     34 H7         26.4827   20.0714   24.5563 H           1 Y8L       0.0833
     35 H8         25.9391   18.7613   23.4988 H           1 Y8L       0.0833
     36 H9         24.0961   19.5203   24.8935 H           1 Y8L       0.0562
     37 H10        23.7221   19.8111   23.2381 H           1 Y8L       0.0562
     38 H11        23.5373   24.2452   24.7370 H           1 Y8L       0.0490
     39 H12        22.7001   25.2040   26.6645 H           1 Y8L       0.0507
     40 H13        23.6588   20.4874   26.7128 H           1 Y8L       0.0490
     41 H14        22.8811   21.4942   28.6360 H           1 Y8L       0.0507
     42 H15        22.7198   23.8108   29.8006 H           1 Y8L       0.2141
     43 H16        18.1903   25.3847   27.6763 H           1 Y8L       0.0819
     44 H17        17.6551   26.2309   29.8930 H           1 Y8L       0.0541
     45 H18        18.1395   28.2950   35.8101 H           1 Y8L       0.0582
     46 H19        16.8843   27.2040   35.2295 H           1 Y8L       0.0582
     47 H20        17.2020   28.7406   34.3895 H           1 Y8L       0.0582
     48 H21        16.7584   25.9618   31.4969 H           1 Y8L       0.0473
     49 H22        16.6168   27.6940   31.8757 H           1 Y8L       0.0473
     50 H23        16.1867   26.4413   33.0613 H           1 Y8L       0.0473
@<TRIPOS>BOND
     1     1     2   1
     2     1     6   1
     3     2     3   1
     4     3     4   1
     5     4     5   1
     6     5     6   1
     7     6     7   1
     8     7     8  ar
     9     7    10  ar
    10     8     9  ar
    11     9    12  ar
    12    10    11  ar
    13    11    12  ar
    14    12    13   1
    15    13    14   1
    16    14    15  ar
    17    14    16  ar
    18    15    19  ar
    19    16    17  ar
    20    17    18  ar
    21    18    19  ar
    22    19    20   1
    23    20    21   1
    24    20    26   2
    25    21    22   1
    26    22    23   2
    27    22    24  am
    28    24    25   1
    29    24    26   1
    30    26    27   1
    31     1    28   1
    32     1    29   1
    33     2    30   1
    34     2    31   1
    35     3    32   1
    36     3    33   1
    37     4    34   1
    38     4    35   1
    39     5    36   1
    40     5    37   1
    41     8    38   1
    42     9    39   1
    43    10    40   1
    44    11    41   1
    45    13    42   1
    46    17    43   1
    47    18    44   1
    48    25    45   1
    49    25    46   1
    50    25    47   1
    51    27    48   1
    52    27    49   1
    53    27    50   1
@<TRIPOS>SUBSTRUCTURE
     1  Y8L      1

