@<TRIPOS>MOLECULE
2xnb_ligand_010
    50    53
SMALL
GAST_HUCK
****
This file was generated by PARSER (from files_GN.cpp)

@<TRIPOS>ATOM
      1 C17        25.7634   21.0209   18.4876 C.3         1 Y8L       0.0648
      2 C18        27.1120   20.3281   18.1715 C.3         1 Y8L      -0.0139
      3 N19        26.8753   18.9258   17.7627 N.4         1 Y8L       0.2297
      4 C20        26.0685   18.1520   18.7343 C.3         1 Y8L      -0.0139
      5 C21        24.7422   18.8824   19.0824 C.3         1 Y8L       0.0648
      6 N16        25.0203   20.2566   19.4775 N.pl3       1 Y8L      -0.3045
      7 C12        24.6084   20.7890   20.6812 C.ar        1 Y8L       0.0297
      8 C13        25.3573   21.7937   21.3550 C.ar        1 Y8L      -0.0528
      9 C14        24.9093   22.3726   22.5568 C.ar        1 Y8L      -0.0489
     10 C11        23.3959   20.3780   21.2983 C.ar        1 Y8L      -0.0528
     11 C10        22.9326   20.9662   22.4887 C.ar        1 Y8L      -0.0489
     12 C9         23.6867   21.9690   23.1237 C.ar        1 Y8L       0.0527
     13 N7         23.2234   22.5435   24.2621 N.pl3       1 Y8L      -0.2529
     14 C4         23.5600   22.1319   25.5048 C.ar        1 Y8L       0.1821
     15 N5         24.4932   21.1676   25.7326 N.ar        1 Y8L      -0.2810
     16 N3         22.9184   22.6740   26.5696 N.ar        1 Y8L      -0.2768
     17 C2         23.1810   22.2719   27.8390 C.ar        1 Y8L      -0.0078
     18 C1         24.1381   21.2699   28.0737 C.ar        1 Y8L      -0.0412
     19 C6         24.8093   20.6991   26.9672 C.ar        1 Y8L       0.0192
     20 C15        25.8177   19.7068   27.1013 C.2         1 Y8L       0.0635
     21 S23        26.7962   19.5738   28.5061 S.3         1 Y8L       0.0011
     22 C24        27.7847   18.3147   27.9076 C.2         1 Y8L       0.2827
     23 O28        28.7232   17.8187   28.5706 O.2         1 Y8L      -0.3738
     24 N25        27.3816   17.9999   26.6487 N.am        1 Y8L      -0.1962
     25 C29        28.0520   16.9793   25.8808 C.3         1 Y8L       0.0552
     26 C26        26.3005   18.7298   26.1930 C.2         1 Y8L       0.0878
     27 C27        25.6978   18.4684   24.8560 C.3         1 Y8L       0.0050
     28 H1         25.1735   21.0679   17.5665 H           1 Y8L       0.0562
     29 H2         25.9482   22.0584   18.7718 H           1 Y8L       0.0562
     30 H3         27.7596   20.3542   19.0522 H           1 Y8L       0.0833
     31 H4         27.6161   20.8534   17.3569 H           1 Y8L       0.0833
     32 H5         27.7752   18.4550   17.6318 H           1 Y8L       0.2015
     33 H6         26.3795   18.9294   16.8693 H           1 Y8L       0.2015
     34 H7         26.6533   17.9995   19.6465 H           1 Y8L       0.0833
     35 H8         25.8471   17.1723   18.3071 H           1 Y8L       0.0833
     36 H9         24.2599   18.2929   19.8627 H           1 Y8L       0.0562
     37 H10        24.0838   18.8821   18.2087 H           1 Y8L       0.0562
     38 H11        26.2653   22.0936   20.9993 H           1 Y8L       0.0490
     39 H12        25.4762   23.0916   23.0129 H           1 Y8L       0.0507
     40 H13        22.7874   19.6890   20.8520 H           1 Y8L       0.0490
     41 H14        22.0370   20.6665   22.8835 H           1 Y8L       0.0507
     42 H15        22.5220   23.2083   24.1779 H           1 Y8L       0.2141
     43 H16        22.6806   22.7035   28.6175 H           1 Y8L       0.0819
     44 H17        24.3294   20.9717   29.0328 H           1 Y8L       0.0541
     45 H18        28.9143   16.5476   26.3956 H           1 Y8L       0.0582
     46 H19        28.4115   17.4002   24.9386 H           1 Y8L       0.0582
     47 H20        27.3602   16.1621   25.6642 H           1 Y8L       0.0582
     48 H21        24.7324   18.9464   24.7152 H           1 Y8L       0.0473
     49 H22        25.5285   17.3998   24.7255 H           1 Y8L       0.0473
     50 H23        26.3767   18.8169   24.0771 H           1 Y8L       0.0473
@<TRIPOS>BOND
     1     1     2   1
     2     1     6   1
     3     2     3   1
     4     3     4   1
     5     4     5   1
     6     5     6   1
     7     6     7   1
     8     7     8  ar
     9     7    10  ar
    10     8     9  ar
    11     9    12  ar
    12    10    11  ar
    13    11    12  ar
    14    12    13   1
    15    13    14   1
    16    14    15  ar
    17    14    16  ar
    18    15    19  ar
    19    16    17  ar
    20    17    18  ar
    21    18    19  ar
    22    19    20   1
    23    20    21   1
    24    20    26   2
    25    21    22   1
    26    22    23   2
    27    22    24  am
    28    24    25   1
    29    24    26   1
    30    26    27   1
    31     1    28   1
    32     1    29   1
    33     2    30   1
    34     2    31   1
    35     3    32   1
    36     3    33   1
    37     4    34   1
    38     4    35   1
    39     5    36   1
    40     5    37   1
    41     8    38   1
    42     9    39   1
    43    10    40   1
    44    11    41   1
    45    13    42   1
    46    17    43   1
    47    18    44   1
    48    25    45   1
    49    25    46   1
    50    25    47   1
    51    27    48   1
    52    27    49   1
    53    27    50   1
@<TRIPOS>SUBSTRUCTURE
     1  Y8L      1

