@<TRIPOS>MOLECULE
2xnb_ligand_032
    50    53
SMALL
GAST_HUCK
****
This file was generated by PARSER (from files_GN.cpp)

@<TRIPOS>ATOM
      1 C17        21.4594   23.3529   29.6743 C.3         1 Y8L       0.0648
      2 C18        20.8502   23.4742   31.0930 C.3         1 Y8L      -0.0139
      3 N19        19.4012   23.7667   31.0183 N.4         1 Y8L       0.2297
      4 C20        19.0691   24.9298   30.1630 C.3         1 Y8L      -0.0139
      5 C21        19.6497   24.7408   28.7346 C.3         1 Y8L       0.0648
      6 N16        21.0666   24.4743   28.8478 N.pl3       1 Y8L      -0.3045
      7 C12        21.9946   25.3143   28.2904 C.ar        1 Y8L       0.0297
      8 C13        22.0038   25.5718   26.9067 C.ar        1 Y8L      -0.0528
      9 C14        22.9874   26.4121   26.3355 C.ar        1 Y8L      -0.0489
     10 C11        22.9648   25.9464   29.1029 C.ar        1 Y8L      -0.0528
     11 C10        23.9107   26.8190   28.5351 C.ar        1 Y8L      -0.0489
     12 C9         23.9277   27.0805   27.1545 C.ar        1 Y8L       0.0527
     13 N7         24.8635   27.8737   26.5511 N.pl3       1 Y8L      -0.2529
     14 C4         25.4427   28.9983   27.0421 C.ar        1 Y8L       0.1821
     15 N5         26.4630   29.5607   26.3373 N.ar        1 Y8L      -0.2810
     16 N3         25.0509   29.5988   28.2003 N.ar        1 Y8L      -0.2768
     17 C2         25.6326   30.7314   28.6590 C.ar        1 Y8L      -0.0078
     18 C1         26.6758   31.3255   27.9282 C.ar        1 Y8L      -0.0412
     19 C6         27.1020   30.6910   26.7487 C.ar        1 Y8L       0.0192
     20 C15        28.1350   31.2460   25.9618 C.2         1 Y8L       0.0635
     21 S23        28.1323   32.8994   25.5011 S.3         1 Y8L       0.0011
     22 C24        29.5421   32.7979   24.5399 C.2         1 Y8L       0.2827
     23 O28        29.9794   33.7824   23.8997 O.2         1 Y8L      -0.3738
     24 N25        30.0269   31.5313   24.6033 N.am        1 Y8L      -0.1962
     25 C29        31.2387   31.1526   23.9239 C.3         1 Y8L       0.0552
     26 C26        29.2733   30.6601   25.3695 C.2         1 Y8L       0.0878
     27 C27        29.6545   29.2394   25.5896 C.3         1 Y8L       0.0050
     28 H1         21.0927   22.4371   29.2034 H           1 Y8L       0.0562
     29 H2         22.5443   23.2392   29.7586 H           1 Y8L       0.0562
     30 H3         21.3551   24.2686   31.6496 H           1 Y8L       0.0833
     31 H4         20.9991   22.5356   31.6310 H           1 Y8L       0.0833
     32 H5         19.0503   23.9346   31.9623 H           1 Y8L       0.2015
     33 H6         18.9277   22.9454   30.6358 H           1 Y8L       0.2015
     34 H7         19.4736   25.8406   30.6158 H           1 Y8L       0.0833
     35 H8         17.9849   25.0349   30.1083 H           1 Y8L       0.0833
     36 H9         19.4263   25.6460   28.1598 H           1 Y8L       0.0562
     37 H10        19.1544   23.9038   28.2376 H           1 Y8L       0.0562
     38 H11        21.3436   25.1013   26.2837 H           1 Y8L       0.0490
     39 H12        23.0031   26.5386   25.3234 H           1 Y8L       0.0507
     40 H13        22.9613   25.8011   30.1127 H           1 Y8L       0.0490
     41 H14        24.6078   27.2456   29.1497 H           1 Y8L       0.0507
     42 H15        25.1221   27.6152   25.6527 H           1 Y8L       0.2141
     43 H16        25.3119   31.1652   29.5267 H           1 Y8L       0.0819
     44 H17        27.1307   32.1758   28.2704 H           1 Y8L       0.0541
     45 H18        31.6815   31.9691   23.3492 H           1 Y8L       0.0582
     46 H19        31.0382   30.3352   23.2295 H           1 Y8L       0.0582
     47 H20        31.9845   30.8210   24.6500 H           1 Y8L       0.0582
     48 H21        28.9681   28.7187   26.2565 H           1 Y8L       0.0473
     49 H22        30.6482   29.1869   26.0360 H           1 Y8L       0.0473
     50 H23        29.6645   28.7133   24.6361 H           1 Y8L       0.0473
@<TRIPOS>BOND
     1     1     2   1
     2     1     6   1
     3     2     3   1
     4     3     4   1
     5     4     5   1
     6     5     6   1
     7     6     7   1
     8     7     8  ar
     9     7    10  ar
    10     8     9  ar
    11     9    12  ar
    12    10    11  ar
    13    11    12  ar
    14    12    13   1
    15    13    14   1
    16    14    15  ar
    17    14    16  ar
    18    15    19  ar
    19    16    17  ar
    20    17    18  ar
    21    18    19  ar
    22    19    20   1
    23    20    21   1
    24    20    26   2
    25    21    22   1
    26    22    23   2
    27    22    24  am
    28    24    25   1
    29    24    26   1
    30    26    27   1
    31     1    28   1
    32     1    29   1
    33     2    30   1
    34     2    31   1
    35     3    32   1
    36     3    33   1
    37     4    34   1
    38     4    35   1
    39     5    36   1
    40     5    37   1
    41     8    38   1
    42     9    39   1
    43    10    40   1
    44    11    41   1
    45    13    42   1
    46    17    43   1
    47    18    44   1
    48    25    45   1
    49    25    46   1
    50    25    47   1
    51    27    48   1
    52    27    49   1
    53    27    50   1
@<TRIPOS>SUBSTRUCTURE
     1  Y8L      1

