@<TRIPOS>MOLECULE
2xnb_ligand_046
    50    53
SMALL
GAST_HUCK
****
This file was generated by PARSER (from files_GN.cpp)

@<TRIPOS>ATOM
      1 C17        26.3050   21.8196   21.9988 C.3         1 Y8L       0.0648
      2 C18        26.8756   22.7121   20.8689 C.3         1 Y8L      -0.0139
      3 N19        27.5875   23.8712   21.4532 N.4         1 Y8L       0.2297
      4 C20        26.7690   24.6451   22.4131 C.3         1 Y8L      -0.0139
      5 C21        26.1145   23.7331   23.4909 C.3         1 Y8L       0.0648
      6 N16        25.4315   22.5928   22.8781 N.pl3       1 Y8L      -0.3045
      7 C12        24.1055   22.2648   23.1189 C.ar        1 Y8L       0.0297
      8 C13        23.3245   21.5089   22.1994 C.ar        1 Y8L      -0.0528
      9 C14        21.9860   21.1535   22.4492 C.ar        1 Y8L      -0.0489
     10 C11        23.4235   22.6570   24.3106 C.ar        1 Y8L      -0.0528
     11 C10        22.0836   22.3042   24.5683 C.ar        1 Y8L      -0.0489
     12 C9         21.3562   21.5055   23.6623 C.ar        1 Y8L       0.0527
     13 N7         20.0811   21.1164   23.9722 N.pl3       1 Y8L      -0.2529
     14 C4         19.5518   19.8748   23.8170 C.ar        1 Y8L       0.1821
     15 N5         18.2510   19.6649   24.1663 N.ar        1 Y8L      -0.2810
     16 N3         20.2676   18.8165   23.3558 N.ar        1 Y8L      -0.2768
     17 C2         19.7172   17.5829   23.2236 C.ar        1 Y8L      -0.0078
     18 C1         18.3691   17.3821   23.5629 C.ar        1 Y8L      -0.0412
     19 C6         17.6046   18.4673   24.0654 C.ar        1 Y8L       0.0192
     20 C15        16.2114   18.3309   24.3981 C.2         1 Y8L       0.0635
     21 S23        15.3074   16.9216   23.9976 S.3         1 Y8L       0.0011
     22 C24        13.7994   17.4698   24.5870 C.2         1 Y8L       0.2827
     23 O28        12.7568   16.7773   24.5354 O.2         1 Y8L      -0.3738
     24 N25        13.9711   18.7199   25.0832 N.am        1 Y8L      -0.1962
     25 C29        12.8542   19.4473   25.6464 C.3         1 Y8L       0.0552
     26 C26        15.2655   19.2081   25.0025 C.2         1 Y8L       0.0878
     27 C27        15.5869   20.5573   25.5408 C.3         1 Y8L       0.0050
     28 H1         27.1421   21.4451   22.5937 H           1 Y8L       0.0562
     29 H2         25.8411   20.9357   21.5656 H           1 Y8L       0.0562
     30 H3         26.0705   23.0623   20.2182 H           1 Y8L       0.0833
     31 H4         27.5781   22.1389   20.2596 H           1 Y8L       0.0833
     32 H5         27.8860   24.4922   20.6967 H           1 Y8L       0.2015
     33 H6         28.4239   23.5353   21.9398 H           1 Y8L       0.2015
     34 H7         25.9928   25.1810   21.8649 H           1 Y8L       0.0833
     35 H8         27.4091   25.3805   22.9001 H           1 Y8L       0.0833
     36 H9         25.4558   24.3768   24.0761 H           1 Y8L       0.0562
     37 H10        26.8906   23.3611   24.1664 H           1 Y8L       0.0562
     38 H11        23.7018   21.2426   21.2860 H           1 Y8L       0.0490
     39 H12        21.4640   20.6483   21.7293 H           1 Y8L       0.0507
     40 H13        23.9165   23.1552   25.0549 H           1 Y8L       0.0490
     41 H14        21.6533   22.5963   25.4497 H           1 Y8L       0.0507
     42 H15        19.5278   21.7691   24.4262 H           1 Y8L       0.2141
     43 H16        20.2868   16.8060   22.8833 H           1 Y8L       0.0819
     44 H17        17.9670   16.4474   23.4325 H           1 Y8L       0.0541
     45 H18        11.9091   18.9008   25.5951 H           1 Y8L       0.0582
     46 H19        12.7139   20.3877   25.1094 H           1 Y8L       0.0582
     47 H20        13.0447   19.6631   26.6991 H           1 Y8L       0.0582
     48 H21        16.6397   20.8067   25.5254 H           1 Y8L       0.0473
     49 H22        15.2702   20.6131   26.5806 H           1 Y8L       0.0473
     50 H23        15.0542   21.3139   24.9651 H           1 Y8L       0.0473
@<TRIPOS>BOND
     1     1     2   1
     2     1     6   1
     3     2     3   1
     4     3     4   1
     5     4     5   1
     6     5     6   1
     7     6     7   1
     8     7     8  ar
     9     7    10  ar
    10     8     9  ar
    11     9    12  ar
    12    10    11  ar
    13    11    12  ar
    14    12    13   1
    15    13    14   1
    16    14    15  ar
    17    14    16  ar
    18    15    19  ar
    19    16    17  ar
    20    17    18  ar
    21    18    19  ar
    22    19    20   1
    23    20    21   1
    24    20    26   2
    25    21    22   1
    26    22    23   2
    27    22    24  am
    28    24    25   1
    29    24    26   1
    30    26    27   1
    31     1    28   1
    32     1    29   1
    33     2    30   1
    34     2    31   1
    35     3    32   1
    36     3    33   1
    37     4    34   1
    38     4    35   1
    39     5    36   1
    40     5    37   1
    41     8    38   1
    42     9    39   1
    43    10    40   1
    44    11    41   1
    45    13    42   1
    46    17    43   1
    47    18    44   1
    48    25    45   1
    49    25    46   1
    50    25    47   1
    51    27    48   1
    52    27    49   1
    53    27    50   1
@<TRIPOS>SUBSTRUCTURE
     1  Y8L      1

