@<TRIPOS>MOLECULE
2xnb_ligand_013
    50    53
SMALL
GAST_HUCK
****
This file was generated by PARSER (from files_GN.cpp)

@<TRIPOS>ATOM
      1 C17        27.9768   25.9709   24.2586 C.3         1 Y8L       0.0648
      2 C18        28.5230   26.7298   23.0216 C.3         1 Y8L      -0.0139
      3 N19        28.6202   25.8173   21.8603 N.4         1 Y8L       0.2297
      4 C20        27.3676   25.0862   21.5683 C.3         1 Y8L      -0.0139
      5 C21        26.8471   24.3442   22.8276 C.3         1 Y8L       0.0648
      6 N16        26.7333   25.2796   23.9386 N.pl3       1 Y8L      -0.3045
      7 C12        25.5522   25.4872   24.6222 C.ar        1 Y8L       0.0297
      8 C13        24.6246   24.4331   24.8568 C.ar        1 Y8L      -0.0528
      9 C14        23.4168   24.6378   25.5467 C.ar        1 Y8L      -0.0489
     10 C11        25.1892   26.7660   25.1280 C.ar        1 Y8L      -0.0528
     11 C10        23.9738   26.9818   25.7988 C.ar        1 Y8L      -0.0489
     12 C9         23.0795   25.9202   26.0206 C.ar        1 Y8L       0.0527
     13 N7         21.8821   26.1990   26.5953 N.pl3       1 Y8L      -0.2529
     14 C4         21.3485   25.6012   27.6820 C.ar        1 Y8L       0.1821
     15 N5         21.9999   24.6721   28.4308 N.ar        1 Y8L      -0.2810
     16 N3         20.1188   26.0144   28.0768 N.ar        1 Y8L      -0.2768
     17 C2         19.5243   25.5283   29.1939 C.ar        1 Y8L      -0.0078
     18 C1         20.1936   24.5738   29.9791 C.ar        1 Y8L      -0.0412
     19 C6         21.4810   24.1545   29.5788 C.ar        1 Y8L       0.0192
     20 C15        22.2293   23.1884   30.2898 C.2         1 Y8L       0.0635
     21 S23        23.0205   21.8998   29.4793 S.3         1 Y8L       0.0011
     22 C24        23.5880   21.1355   30.9022 C.2         1 Y8L       0.2827
     23 O28        24.2534   20.0745   30.8774 O.2         1 Y8L      -0.3738
     24 N25        23.1981   21.8639   31.9818 N.am        1 Y8L      -0.1962
     25 C29        23.5454   21.4715   33.3283 C.3         1 Y8L       0.0552
     26 C26        22.4673   22.9937   31.6715 C.2         1 Y8L       0.0878
     27 C27        22.0229   23.9493   32.7183 C.3         1 Y8L       0.0050
     28 H1         27.9048   26.6637   25.0981 H           1 Y8L       0.0562
     29 H2         28.7187   25.2220   24.5546 H           1 Y8L       0.0562
     30 H3         29.5216   27.1218   23.2365 H           1 Y8L       0.0833
     31 H4         27.8684   27.5716   22.7748 H           1 Y8L       0.0833
     32 H5         29.3527   25.1313   22.0569 H           1 Y8L       0.2015
     33 H6         28.8890   26.3669   21.0417 H           1 Y8L       0.2015
     34 H7         27.5575   24.3639   20.7735 H           1 Y8L       0.0833
     35 H8         26.6088   25.7898   21.2169 H           1 Y8L       0.0833
     36 H9         27.5414   23.5431   23.1026 H           1 Y8L       0.0562
     37 H10        25.9020   23.8802   22.5385 H           1 Y8L       0.0562
     38 H11        24.8278   23.4775   24.5589 H           1 Y8L       0.0490
     39 H12        22.7744   23.8499   25.6708 H           1 Y8L       0.0507
     40 H13        25.7724   27.5859   24.9592 H           1 Y8L       0.0490
     41 H14        23.7461   27.9191   26.1348 H           1 Y8L       0.0507
     42 H15        21.4079   26.9701   26.2496 H           1 Y8L       0.2141
     43 H16        18.5889   25.8508   29.4503 H           1 Y8L       0.0819
     44 H17        19.7307   24.1752   30.7985 H           1 Y8L       0.0541
     45 H18        24.1065   20.5347   33.3695 H           1 Y8L       0.0582
     46 H19        22.6408   21.3371   33.9244 H           1 Y8L       0.0582
     47 H20        24.1634   22.2418   33.7942 H           1 Y8L       0.0582
     48 H21        21.5578   24.8438   32.3107 H           1 Y8L       0.0473
     49 H22        22.8862   24.2787   33.2983 H           1 Y8L       0.0473
     50 H23        21.3084   23.4551   33.3801 H           1 Y8L       0.0473
@<TRIPOS>BOND
     1     1     2   1
     2     1     6   1
     3     2     3   1
     4     3     4   1
     5     4     5   1
     6     5     6   1
     7     6     7   1
     8     7     8  ar
     9     7    10  ar
    10     8     9  ar
    11     9    12  ar
    12    10    11  ar
    13    11    12  ar
    14    12    13   1
    15    13    14   1
    16    14    15  ar
    17    14    16  ar
    18    15    19  ar
    19    16    17  ar
    20    17    18  ar
    21    18    19  ar
    22    19    20   1
    23    20    21   1
    24    20    26   2
    25    21    22   1
    26    22    23   2
    27    22    24  am
    28    24    25   1
    29    24    26   1
    30    26    27   1
    31     1    28   1
    32     1    29   1
    33     2    30   1
    34     2    31   1
    35     3    32   1
    36     3    33   1
    37     4    34   1
    38     4    35   1
    39     5    36   1
    40     5    37   1
    41     8    38   1
    42     9    39   1
    43    10    40   1
    44    11    41   1
    45    13    42   1
    46    17    43   1
    47    18    44   1
    48    25    45   1
    49    25    46   1
    50    25    47   1
    51    27    48   1
    52    27    49   1
    53    27    50   1
@<TRIPOS>SUBSTRUCTURE
     1  Y8L      1

