@<TRIPOS>MOLECULE
2xnb_ligand_054
    50    53
SMALL
GAST_HUCK
****
This file was generated by PARSER (from files_GN.cpp)

@<TRIPOS>ATOM
      1 C17        27.0240   22.9657   22.7753 C.3         1 Y8L       0.0648
      2 C18        27.0220   24.0534   21.6681 C.3         1 Y8L      -0.0139
      3 N19        27.6927   25.2834   22.1420 N.4         1 Y8L       0.2297
      4 C20        27.1195   25.8153   23.3984 C.3         1 Y8L      -0.0139
      5 C21        27.1586   24.7189   24.4896 C.3         1 Y8L       0.0648
      6 N16        26.5043   23.5033   24.0248 N.pl3       1 Y8L      -0.3045
      7 C12        25.4921   22.8872   24.7289 C.ar        1 Y8L       0.0297
      8 C13        25.3457   21.4745   24.7351 C.ar        1 Y8L      -0.0528
      9 C14        24.3363   20.8335   25.4782 C.ar        1 Y8L      -0.0489
     10 C11        24.5601   23.6244   25.5038 C.ar        1 Y8L      -0.0528
     11 C10        23.5498   22.9892   26.2472 C.ar        1 Y8L      -0.0489
     12 C9         23.4167   21.5866   26.2397 C.ar        1 Y8L       0.0527
     13 N7         22.4262   21.0609   27.0176 N.pl3       1 Y8L      -0.2529
     14 C4         21.6974   19.9358   26.8420 C.ar        1 Y8L       0.1821
     15 N5         21.8419   19.0582   25.8109 N.ar        1 Y8L      -0.2810
     16 N3         20.6997   19.7197   27.7331 N.ar        1 Y8L      -0.2768
     17 C2         19.8483   18.6734   27.6150 C.ar        1 Y8L      -0.0078
     18 C1         19.9825   17.7811   26.5375 C.ar        1 Y8L      -0.0412
     19 C6         21.0435   17.9665   25.6227 C.ar        1 Y8L       0.0192
     20 C15        21.2924   17.1415   24.4870 C.2         1 Y8L       0.0635
     21 S23        21.9657   17.8322   23.0643 S.3         1 Y8L       0.0011
     22 C24        22.0189   16.3797   22.1667 C.2         1 Y8L       0.2827
     23 O28        22.4629   16.3174   20.9972 O.2         1 Y8L      -0.3738
     24 N25        21.5480   15.3691   22.9407 N.am        1 Y8L      -0.1962
     25 C29        21.5408   14.0299   22.3963 C.3         1 Y8L       0.0552
     26 C26        21.1395   15.7560   24.2053 C.2         1 Y8L       0.0878
     27 C27        20.6502   14.7469   25.1824 C.3         1 Y8L       0.0050
     28 H1         28.0452   22.6119   22.9326 H           1 Y8L       0.0562
     29 H2         26.4401   22.1274   22.3884 H           1 Y8L       0.0562
     30 H3         25.9950   24.2864   21.3799 H           1 Y8L       0.0833
     31 H4         27.5481   23.6819   20.7861 H           1 Y8L       0.0833
     32 H5         27.6466   26.0062   21.4170 H           1 Y8L       0.2015
     33 H6         28.6700   25.0418   22.3175 H           1 Y8L       0.2015
     34 H7         26.0903   26.1447   23.2352 H           1 Y8L       0.0833
     35 H8         27.7097   26.6764   23.7184 H           1 Y8L       0.0833
     36 H9         26.7518   25.1231   25.4176 H           1 Y8L       0.0562
     37 H10        28.2051   24.4859   24.7033 H           1 Y8L       0.0562
     38 H11        26.0220   20.8811   24.2509 H           1 Y8L       0.0490
     39 H12        24.3120   19.8128   25.4915 H           1 Y8L       0.0507
     40 H13        24.5686   24.6452   25.5012 H           1 Y8L       0.0490
     41 H14        22.8966   23.5663   26.7843 H           1 Y8L       0.0507
     42 H15        22.1288   21.6266   27.7486 H           1 Y8L       0.2141
     43 H16        19.0952   18.5550   28.2945 H           1 Y8L       0.0819
     44 H17        19.2836   17.0494   26.4210 H           1 Y8L       0.0541
     45 H18        20.8746   13.9851   21.5317 H           1 Y8L       0.0582
     46 H19        21.2149   13.2634   23.0981 H           1 Y8L       0.0582
     47 H20        22.5478   13.7565   22.0728 H           1 Y8L       0.0582
     48 H21        20.3547   15.1580   26.1387 H           1 Y8L       0.0473
     49 H22        21.4428   14.0240   25.3820 H           1 Y8L       0.0473
     50 H23        19.7867   14.2242   24.7654 H           1 Y8L       0.0473
@<TRIPOS>BOND
     1     1     2   1
     2     1     6   1
     3     2     3   1
     4     3     4   1
     5     4     5   1
     6     5     6   1
     7     6     7   1
     8     7     8  ar
     9     7    10  ar
    10     8     9  ar
    11     9    12  ar
    12    10    11  ar
    13    11    12  ar
    14    12    13   1
    15    13    14   1
    16    14    15  ar
    17    14    16  ar
    18    15    19  ar
    19    16    17  ar
    20    17    18  ar
    21    18    19  ar
    22    19    20   1
    23    20    21   1
    24    20    26   2
    25    21    22   1
    26    22    23   2
    27    22    24  am
    28    24    25   1
    29    24    26   1
    30    26    27   1
    31     1    28   1
    32     1    29   1
    33     2    30   1
    34     2    31   1
    35     3    32   1
    36     3    33   1
    37     4    34   1
    38     4    35   1
    39     5    36   1
    40     5    37   1
    41     8    38   1
    42     9    39   1
    43    10    40   1
    44    11    41   1
    45    13    42   1
    46    17    43   1
    47    18    44   1
    48    25    45   1
    49    25    46   1
    50    25    47   1
    51    27    48   1
    52    27    49   1
    53    27    50   1
@<TRIPOS>SUBSTRUCTURE
     1  Y8L      1

