@<TRIPOS>MOLECULE
2xnb_ligand_033
    50    53
SMALL
GAST_HUCK
****
This file was generated by PARSER (from files_GN.cpp)

@<TRIPOS>ATOM
      1 C17        27.5577   27.2047   23.3225 C.3         1 Y8L       0.0648
      2 C18        28.9156   26.5478   22.9647 C.3         1 Y8L      -0.0139
      3 N19        28.7627   25.6981   21.7638 N.4         1 Y8L       0.2297
      4 C20        27.6869   24.6901   21.8840 C.3         1 Y8L      -0.0139
      5 C21        26.3476   25.3439   22.3081 C.3         1 Y8L       0.0648
      6 N16        26.5205   26.1913   23.4883 N.pl3       1 Y8L      -0.3045
      7 C12        25.7477   26.0711   24.6294 C.ar        1 Y8L       0.0297
      8 C13        24.4451   25.5040   24.5923 C.ar        1 Y8L      -0.0528
      9 C14        23.6415   25.3845   25.7359 C.ar        1 Y8L      -0.0489
     10 C11        26.1832   26.5060   25.9132 C.ar        1 Y8L      -0.0528
     11 C10        25.3705   26.4116   27.0605 C.ar        1 Y8L      -0.0489
     12 C9         24.0676   25.8709   26.9964 C.ar        1 Y8L       0.0527
     13 N7         23.3295   25.8526   28.1663 N.pl3       1 Y8L      -0.2529
     14 C4         22.0112   25.5867   28.3758 C.ar        1 Y8L       0.1821
     15 N5         21.5282   25.6507   29.6503 N.ar        1 Y8L      -0.2810
     16 N3         21.1258   25.2741   27.3966 N.ar        1 Y8L      -0.2768
     17 C2         19.8267   25.0093   27.6378 C.ar        1 Y8L      -0.0078
     18 C1         19.3460   25.0648   28.9525 C.ar        1 Y8L      -0.0412
     19 C6         20.2313   25.4044   30.0078 C.ar        1 Y8L       0.0192
     20 C15        19.7797   25.5237   31.3637 C.2         1 Y8L       0.0635
     21 S23        18.1288   25.3028   31.7938 S.3         1 Y8L       0.0011
     22 C24        18.2924   25.6709   33.4528 C.2         1 Y8L       0.2827
     23 O28        17.3217   25.6652   34.2404 O.2         1 Y8L      -0.3738
     24 N25        19.5950   25.9637   33.6902 N.am        1 Y8L      -0.1962
     25 C29        20.0255   26.3549   35.0133 C.3         1 Y8L       0.0552
     26 C26        20.4272   25.8622   32.5851 C.2         1 Y8L       0.0878
     27 C27        21.8886   26.1045   32.7257 C.3         1 Y8L       0.0050
     28 H1         27.2684   27.8630   22.4983 H           1 Y8L       0.0562
     29 H2         27.6981   27.8585   24.1821 H           1 Y8L       0.0562
     30 H3         29.2762   25.9481   23.8043 H           1 Y8L       0.0833
     31 H4         29.6587   27.3203   22.7514 H           1 Y8L       0.0833
     32 H5         29.6464   25.2159   21.5831 H           1 Y8L       0.2015
     33 H6         28.5511   26.3064   20.9691 H           1 Y8L       0.2015
     34 H7         27.9716   23.9350   22.6197 H           1 Y8L       0.0833
     35 H8         27.5648   24.1936   20.9176 H           1 Y8L       0.0833
     36 H9         25.6486   24.5203   22.4537 H           1 Y8L       0.0562
     37 H10        25.9800   25.9492   21.4780 H           1 Y8L       0.0562
     38 H11        24.0203   25.2107   23.7094 H           1 Y8L       0.0490
     39 H12        22.7421   24.9309   25.6185 H           1 Y8L       0.0507
     40 H13        27.1309   26.8621   26.0483 H           1 Y8L       0.0490
     41 H14        25.7433   26.7396   27.9569 H           1 Y8L       0.0507
     42 H15        23.8223   26.1027   28.9647 H           1 Y8L       0.2141
     43 H16        19.2019   24.7777   26.8611 H           1 Y8L       0.0819
     44 H17        18.3570   24.8641   29.1125 H           1 Y8L       0.0541
     45 H18        19.2024   26.4339   35.7270 H           1 Y8L       0.0582
     46 H19        20.5075   27.3322   34.9676 H           1 Y8L       0.0582
     47 H20        20.7336   25.6260   35.4109 H           1 Y8L       0.0582
     48 H21        22.4657   25.8426   31.8487 H           1 Y8L       0.0473
     49 H22        22.2899   25.5056   33.5433 H           1 Y8L       0.0473
     50 H23        22.0593   27.1582   32.9412 H           1 Y8L       0.0473
@<TRIPOS>BOND
     1     1     2   1
     2     1     6   1
     3     2     3   1
     4     3     4   1
     5     4     5   1
     6     5     6   1
     7     6     7   1
     8     7     8  ar
     9     7    10  ar
    10     8     9  ar
    11     9    12  ar
    12    10    11  ar
    13    11    12  ar
    14    12    13   1
    15    13    14   1
    16    14    15  ar
    17    14    16  ar
    18    15    19  ar
    19    16    17  ar
    20    17    18  ar
    21    18    19  ar
    22    19    20   1
    23    20    21   1
    24    20    26   2
    25    21    22   1
    26    22    23   2
    27    22    24  am
    28    24    25   1
    29    24    26   1
    30    26    27   1
    31     1    28   1
    32     1    29   1
    33     2    30   1
    34     2    31   1
    35     3    32   1
    36     3    33   1
    37     4    34   1
    38     4    35   1
    39     5    36   1
    40     5    37   1
    41     8    38   1
    42     9    39   1
    43    10    40   1
    44    11    41   1
    45    13    42   1
    46    17    43   1
    47    18    44   1
    48    25    45   1
    49    25    46   1
    50    25    47   1
    51    27    48   1
    52    27    49   1
    53    27    50   1
@<TRIPOS>SUBSTRUCTURE
     1  Y8L      1

