@<TRIPOS>MOLECULE
2xnb_ligand_050
    50    53
SMALL
GAST_HUCK
****
This file was generated by PARSER (from files_GN.cpp)

@<TRIPOS>ATOM
      1 C17        25.6429   21.1296   22.9198 C.3         1 Y8L       0.0648
      2 C18        25.4541   20.8776   21.4006 C.3         1 Y8L      -0.0139
      3 N19        26.5732   21.4483   20.6179 N.4         1 Y8L       0.2297
      4 C20        26.8431   22.8748   20.9035 C.3         1 Y8L      -0.0139
      5 C21        27.0242   23.0927   22.4251 C.3         1 Y8L       0.0648
      6 N16        25.8975   22.5416   23.1608 N.pl3       1 Y8L      -0.3045
      7 C12        25.1167   23.2961   24.0076 C.ar        1 Y8L       0.0297
      8 C13        24.8352   24.6630   23.7511 C.ar        1 Y8L      -0.0528
      9 C14        24.0193   25.4235   24.6082 C.ar        1 Y8L      -0.0489
     10 C11        24.5571   22.7390   25.1870 C.ar        1 Y8L      -0.0528
     11 C10        23.7428   23.4963   26.0472 C.ar        1 Y8L      -0.0489
     12 C9         23.4435   24.8457   25.7550 C.ar        1 Y8L       0.0527
     13 N7         22.6700   25.6387   26.5532 N.pl3       1 Y8L      -0.2529
     14 C4         21.5657   25.2906   27.2503 C.ar        1 Y8L       0.1821
     15 N5         20.9922   24.0594   27.1835 N.ar        1 Y8L      -0.2810
     16 N3         20.9761   26.2324   28.0281 N.ar        1 Y8L      -0.2768
     17 C2         19.8484   25.9700   28.7372 C.ar        1 Y8L      -0.0078
     18 C1         19.2484   24.7023   28.6592 C.ar        1 Y8L      -0.0412
     19 C6         19.8659   23.7124   27.8640 C.ar        1 Y8L       0.0192
     20 C15        19.3548   22.4043   27.6781 C.2         1 Y8L       0.0635
     21 S23        19.5238   21.5936   26.1740 S.3         1 Y8L       0.0011
     22 C24        18.6706   20.1877   26.6444 C.2         1 Y8L       0.2827
     23 O28        18.4900   19.2193   25.8718 O.2         1 Y8L      -0.3738
     24 N25        18.2651   20.3316   27.9341 N.am        1 Y8L      -0.1962
     25 C29        17.4991   19.3071   28.6004 C.3         1 Y8L       0.0552
     26 C26        18.6522   21.5164   28.5283 C.2         1 Y8L       0.0878
     27 C27        18.4012   21.7899   29.9685 C.3         1 Y8L       0.0050
     28 H1         26.4865   20.5386   23.2872 H           1 Y8L       0.0562
     29 H2         24.7402   20.7582   23.4110 H           1 Y8L       0.0562
     30 H3         24.5143   21.3260   21.0676 H           1 Y8L       0.0833
     31 H4         25.4035   19.8033   21.2093 H           1 Y8L       0.0833
     32 H5         26.3686   21.3424   19.6216 H           1 Y8L       0.2015
     33 H6         27.4190   20.9185   20.8360 H           1 Y8L       0.2015
     34 H7         26.0205   23.4888   20.5329 H           1 Y8L       0.0833
     35 H8         27.7539   23.1701   20.3776 H           1 Y8L       0.0833
     36 H9         27.2094   24.1510   22.6171 H           1 Y8L       0.0562
     37 H10        27.9285   22.5683   22.7450 H           1 Y8L       0.0562
     38 H11        25.1732   25.1126   22.8990 H           1 Y8L       0.0490
     39 H12        23.8222   26.4003   24.3742 H           1 Y8L       0.0507
     40 H13        24.7839   21.7832   25.4692 H           1 Y8L       0.0490
     41 H14        23.4048   23.0619   26.9084 H           1 Y8L       0.0507
     42 H15        22.8997   26.5842   26.5702 H           1 Y8L       0.2141
     43 H16        19.4361   26.6985   29.3202 H           1 Y8L       0.0819
     44 H17        18.3721   24.5318   29.1542 H           1 Y8L       0.0541
     45 H18        17.2595   18.4617   27.9515 H           1 Y8L       0.0582
     46 H19        16.5553   19.7268   28.9540 H           1 Y8L       0.0582
     47 H20        18.0567   18.9166   29.4533 H           1 Y8L       0.0582
     48 H21        18.9567   22.6495   30.3390 H           1 Y8L       0.0473
     49 H22        18.7199   20.9380   30.5696 H           1 Y8L       0.0473
     50 H23        17.3353   21.9607   30.1286 H           1 Y8L       0.0473
@<TRIPOS>BOND
     1     1     2   1
     2     1     6   1
     3     2     3   1
     4     3     4   1
     5     4     5   1
     6     5     6   1
     7     6     7   1
     8     7     8  ar
     9     7    10  ar
    10     8     9  ar
    11     9    12  ar
    12    10    11  ar
    13    11    12  ar
    14    12    13   1
    15    13    14   1
    16    14    15  ar
    17    14    16  ar
    18    15    19  ar
    19    16    17  ar
    20    17    18  ar
    21    18    19  ar
    22    19    20   1
    23    20    21   1
    24    20    26   2
    25    21    22   1
    26    22    23   2
    27    22    24  am
    28    24    25   1
    29    24    26   1
    30    26    27   1
    31     1    28   1
    32     1    29   1
    33     2    30   1
    34     2    31   1
    35     3    32   1
    36     3    33   1
    37     4    34   1
    38     4    35   1
    39     5    36   1
    40     5    37   1
    41     8    38   1
    42     9    39   1
    43    10    40   1
    44    11    41   1
    45    13    42   1
    46    17    43   1
    47    18    44   1
    48    25    45   1
    49    25    46   1
    50    25    47   1
    51    27    48   1
    52    27    49   1
    53    27    50   1
@<TRIPOS>SUBSTRUCTURE
     1  Y8L      1

