@<TRIPOS>MOLECULE
2xnb_ligand_053
    50    53
SMALL
GAST_HUCK
****
This file was generated by PARSER (from files_GN.cpp)

@<TRIPOS>ATOM
      1 C17        26.8839   27.6211   24.3433 C.3         1 Y8L       0.0648
      2 C18        25.8169   27.7587   25.4607 C.3         1 Y8L      -0.0139
      3 N19        26.4221   27.5521   26.7979 N.4         1 Y8L       0.2297
      4 C20        27.1522   26.2706   26.9356 C.3         1 Y8L      -0.0139
      5 C21        28.1943   26.1278   25.8022 C.3         1 Y8L       0.0648
      6 N16        27.5798   26.3600   24.5106 N.pl3       1 Y8L      -0.3045
      7 C12        27.6087   25.4200   23.5176 C.ar        1 Y8L       0.0297
      8 C13        28.0355   25.7583   22.2089 C.ar        1 Y8L      -0.0528
      9 C14        28.1136   24.7893   21.1953 C.ar        1 Y8L      -0.0489
     10 C11        27.2483   24.0729   23.7644 C.ar        1 Y8L      -0.0528
     11 C10        27.2827   23.1100   22.7398 C.ar        1 Y8L      -0.0489
     12 C9         27.7003   23.4624   21.4375 C.ar        1 Y8L       0.0527
     13 N7         27.7584   22.5633   20.4122 N.pl3       1 Y8L      -0.2529
     14 C4         26.7864   21.6943   20.0493 C.ar        1 Y8L       0.1821
     15 N5         25.6365   21.5360   20.7576 N.ar        1 Y8L      -0.2810
     16 N3         26.9419   20.9653   18.9167 N.ar        1 Y8L      -0.2768
     17 C2         25.9844   20.1098   18.4771 C.ar        1 Y8L      -0.0078
     18 C1         24.7992   19.9585   19.2210 C.ar        1 Y8L      -0.0412
     19 C6         24.6267   20.6964   20.4167 C.ar        1 Y8L       0.0192
     20 C15        23.4948   20.5565   21.2797 C.2         1 Y8L       0.0635
     21 S23        22.2940   19.3559   21.0055 S.3         1 Y8L       0.0011
     22 C24        21.3769   19.6810   22.4097 C.2         1 Y8L       0.2827
     23 O28        20.3471   19.0307   22.6999 O.2         1 Y8L      -0.3738
     24 N25        21.9745   20.6843   23.0974 N.am        1 Y8L      -0.1962
     25 C29        21.4520   21.1321   24.3723 C.3         1 Y8L       0.0552
     26 C26        23.1033   21.2045   22.4884 C.2         1 Y8L       0.0878
     27 C27        23.8086   22.3633   23.0999 C.3         1 Y8L       0.0050
     28 H1         27.5923   28.4527   24.4059 H           1 Y8L       0.0562
     29 H2         26.3621   27.6967   23.3844 H           1 Y8L       0.0562
     30 H3         25.0261   27.0210   25.3029 H           1 Y8L       0.0833
     31 H4         25.3670   28.7534   25.4251 H           1 Y8L       0.0833
     32 H5         25.6860   27.5915   27.5046 H           1 Y8L       0.2015
     33 H6         27.0816   28.3145   26.9715 H           1 Y8L       0.2015
     34 H7         26.4516   25.4347   26.8982 H           1 Y8L       0.0833
     35 H8         27.6566   26.2510   27.9056 H           1 Y8L       0.0833
     36 H9         28.6844   25.1536   25.8827 H           1 Y8L       0.0562
     37 H10        28.9732   26.8807   25.9496 H           1 Y8L       0.0562
     38 H11        28.3571   26.7105   22.0106 H           1 Y8L       0.0490
     39 H12        28.4632   25.0586   20.2724 H           1 Y8L       0.0507
     40 H13        26.9157   23.7936   24.6912 H           1 Y8L       0.0490
     41 H14        27.0184   22.1454   22.9555 H           1 Y8L       0.0507
     42 H15        28.5682   22.5752   19.8669 H           1 Y8L       0.2141
     43 H16        26.1281   19.5873   17.6113 H           1 Y8L       0.0819
     44 H17        24.0831   19.3156   18.8716 H           1 Y8L       0.0541
     45 H18        20.5904   20.5537   24.7083 H           1 Y8L       0.0582
     46 H19        21.1345   22.1747   24.3179 H           1 Y8L       0.0582
     47 H20        22.2196   21.0421   25.1434 H           1 Y8L       0.0582
     48 H21        24.4999   22.8603   22.4309 H           1 Y8L       0.0473
     49 H22        24.3465   22.0245   23.9881 H           1 Y8L       0.0473
     50 H23        23.0766   23.1156   23.3977 H           1 Y8L       0.0473
@<TRIPOS>BOND
     1     1     2   1
     2     1     6   1
     3     2     3   1
     4     3     4   1
     5     4     5   1
     6     5     6   1
     7     6     7   1
     8     7     8  ar
     9     7    10  ar
    10     8     9  ar
    11     9    12  ar
    12    10    11  ar
    13    11    12  ar
    14    12    13   1
    15    13    14   1
    16    14    15  ar
    17    14    16  ar
    18    15    19  ar
    19    16    17  ar
    20    17    18  ar
    21    18    19  ar
    22    19    20   1
    23    20    21   1
    24    20    26   2
    25    21    22   1
    26    22    23   2
    27    22    24  am
    28    24    25   1
    29    24    26   1
    30    26    27   1
    31     1    28   1
    32     1    29   1
    33     2    30   1
    34     2    31   1
    35     3    32   1
    36     3    33   1
    37     4    34   1
    38     4    35   1
    39     5    36   1
    40     5    37   1
    41     8    38   1
    42     9    39   1
    43    10    40   1
    44    11    41   1
    45    13    42   1
    46    17    43   1
    47    18    44   1
    48    25    45   1
    49    25    46   1
    50    25    47   1
    51    27    48   1
    52    27    49   1
    53    27    50   1
@<TRIPOS>SUBSTRUCTURE
     1  Y8L      1

