@<TRIPOS>MOLECULE
2xnb_ligand_006
    50    53
SMALL
GAST_HUCK
****
This file was generated by PARSER (from files_GN.cpp)

@<TRIPOS>ATOM
      1 C17        27.6386   27.6428   25.4970 C.3         1 Y8L       0.0648
      2 C18        27.5178   27.1038   24.0540 C.3         1 Y8L      -0.0139
      3 N19        27.6758   28.2077   23.0793 N.4         1 Y8L       0.2297
      4 C20        26.7626   29.3478   23.3201 C.3         1 Y8L      -0.0139
      5 C21        26.8946   29.8613   24.7795 C.3         1 Y8L       0.0648
      6 N16        26.7176   28.7487   25.7023 N.pl3       1 Y8L      -0.3045
      7 C12        25.7418   28.7311   26.6696 C.ar        1 Y8L       0.0297
      8 C13        25.4093   29.8765   27.4406 C.ar        1 Y8L      -0.0528
      9 C14        24.4568   29.8270   28.4774 C.ar        1 Y8L      -0.0489
     10 C11        25.0087   27.5494   26.9491 C.ar        1 Y8L      -0.0528
     11 C10        24.0372   27.5042   27.9607 C.ar        1 Y8L      -0.0489
     12 C9         23.7818   28.6255   28.7854 C.ar        1 Y8L       0.0527
     13 N7         22.8896   28.6293   29.8283 N.pl3       1 Y8L      -0.2529
     14 C4         22.4150   27.5719   30.5390 C.ar        1 Y8L       0.1821
     15 N5         21.4245   27.7909   31.4459 N.ar        1 Y8L      -0.2810
     16 N3         22.8692   26.2969   30.3806 N.ar        1 Y8L      -0.2768
     17 C2         22.3574   25.2487   31.0606 C.ar        1 Y8L      -0.0078
     18 C1         21.3067   25.4544   31.9672 C.ar        1 Y8L      -0.0412
     19 C6         20.8654   26.7791   32.1583 C.ar        1 Y8L       0.0192
     20 C15        19.8008   27.0631   33.0320 C.2         1 Y8L       0.0635
     21 S23        19.9989   27.7932   34.5659 S.3         1 Y8L       0.0011
     22 C24        18.3332   27.7239   34.9697 C.2         1 Y8L       0.2827
     23 O28        17.8882   28.1482   36.0595 O.2         1 Y8L      -0.3738
     24 N25        17.6495   27.1354   33.9486 N.am        1 Y8L      -0.1962
     25 C29        16.2222   26.9327   33.9955 C.3         1 Y8L       0.0552
     26 C26        18.4337   26.7606   32.8814 C.2         1 Y8L       0.0878
     27 C27        17.8904   26.1096   31.6601 C.3         1 Y8L       0.0050
     28 H1         28.6575   27.9989   25.6577 H           1 Y8L       0.0562
     29 H2         27.5052   26.8192   26.1978 H           1 Y8L       0.0562
     30 H3         26.5437   26.6256   23.9147 H           1 Y8L       0.0833
     31 H4         28.2965   26.3602   23.8652 H           1 Y8L       0.0833
     32 H5         27.5240   27.8464   22.1348 H           1 Y8L       0.2015
     33 H6         28.6356   28.5521   23.1454 H           1 Y8L       0.2015
     34 H7         25.7302   29.0400   23.1226 H           1 Y8L       0.0833
     35 H8         27.0207   30.1424   22.6176 H           1 Y8L       0.0833
     36 H9         26.1564   30.6556   24.9119 H           1 Y8L       0.0562
     37 H10        27.8869   30.3029   24.9225 H           1 Y8L       0.0562
     38 H11        25.9166   30.7557   27.3029 H           1 Y8L       0.0490
     39 H12        24.2794   30.6771   29.0227 H           1 Y8L       0.0507
     40 H13        25.1313   26.7130   26.3776 H           1 Y8L       0.0490
     41 H14        23.5050   26.6413   28.0702 H           1 Y8L       0.0507
     42 H15        22.5648   29.5005   30.1148 H           1 Y8L       0.2141
     43 H16        22.7319   24.3138   30.9007 H           1 Y8L       0.0819
     44 H17        20.8979   24.6688   32.4738 H           1 Y8L       0.0541
     45 H18        15.7692   27.2860   34.9237 H           1 Y8L       0.0582
     46 H19        16.0042   25.8671   33.9068 H           1 Y8L       0.0582
     47 H20        15.7452   27.4648   33.1686 H           1 Y8L       0.0582
     48 H21        18.6556   25.9291   30.9057 H           1 Y8L       0.0473
     49 H22        17.1205   26.7395   31.2132 H           1 Y8L       0.0473
     50 H23        17.4556   25.1520   31.9384 H           1 Y8L       0.0473
@<TRIPOS>BOND
     1     1     2   1
     2     1     6   1
     3     2     3   1
     4     3     4   1
     5     4     5   1
     6     5     6   1
     7     6     7   1
     8     7     8  ar
     9     7    10  ar
    10     8     9  ar
    11     9    12  ar
    12    10    11  ar
    13    11    12  ar
    14    12    13   1
    15    13    14   1
    16    14    15  ar
    17    14    16  ar
    18    15    19  ar
    19    16    17  ar
    20    17    18  ar
    21    18    19  ar
    22    19    20   1
    23    20    21   1
    24    20    26   2
    25    21    22   1
    26    22    23   2
    27    22    24  am
    28    24    25   1
    29    24    26   1
    30    26    27   1
    31     1    28   1
    32     1    29   1
    33     2    30   1
    34     2    31   1
    35     3    32   1
    36     3    33   1
    37     4    34   1
    38     4    35   1
    39     5    36   1
    40     5    37   1
    41     8    38   1
    42     9    39   1
    43    10    40   1
    44    11    41   1
    45    13    42   1
    46    17    43   1
    47    18    44   1
    48    25    45   1
    49    25    46   1
    50    25    47   1
    51    27    48   1
    52    27    49   1
    53    27    50   1
@<TRIPOS>SUBSTRUCTURE
     1  Y8L      1

