@<TRIPOS>MOLECULE
2xnb_ligand_029
    50    53
SMALL
GAST_HUCK
****
This file was generated by PARSER (from files_GN.cpp)

@<TRIPOS>ATOM
      1 C17        22.2814   26.0591   29.5422 C.3         1 Y8L       0.0648
      2 C18        22.4416   27.3433   30.4005 C.3         1 Y8L      -0.0139
      3 N19        21.7393   28.4560   29.7333 N.4         1 Y8L       0.2297
      4 C20        22.3461   28.7901   28.4317 C.3         1 Y8L      -0.0139
      5 C21        22.3813   27.5626   27.4788 C.3         1 Y8L       0.0648
      6 N16        22.4710   26.2525   28.1122 N.pl3       1 Y8L      -0.3045
      7 C12        22.4724   25.1616   27.2839 C.ar        1 Y8L       0.0297
      8 C13        23.5410   24.9447   26.3787 C.ar        1 Y8L      -0.0528
      9 C14        23.5473   23.8340   25.5083 C.ar        1 Y8L      -0.0489
     10 C11        21.3859   24.2529   27.2528 C.ar        1 Y8L      -0.0528
     11 C10        21.3506   23.1872   26.3320 C.ar        1 Y8L      -0.0489
     12 C9         22.4446   22.9544   25.4811 C.ar        1 Y8L       0.0527
     13 N7         22.3880   21.9461   24.5776 N.pl3       1 Y8L      -0.2529
     14 C4         23.1327   20.8222   24.6195 C.ar        1 Y8L       0.1821
     15 N5         24.0292   20.5462   25.6104 N.ar        1 Y8L      -0.2810
     16 N3         22.9291   19.8951   23.6507 N.ar        1 Y8L      -0.2768
     17 C2         23.6018   18.7186   23.6363 C.ar        1 Y8L      -0.0078
     18 C1         24.5182   18.4259   24.6556 C.ar        1 Y8L      -0.0412
     19 C6         24.7217   19.3760   25.6865 C.ar        1 Y8L       0.0192
     20 C15        25.6039   19.1299   26.7761 C.2         1 Y8L       0.0635
     21 S23        26.9941   18.1348   26.6135 S.3         1 Y8L       0.0011
     22 C24        27.5204   18.3021   28.2316 C.2         1 Y8L       0.2827
     23 O28        28.5607   17.7489   28.6561 O.2         1 Y8L      -0.3738
     24 N25        26.6398   19.0974   28.8935 N.am        1 Y8L      -0.1962
     25 C29        26.8165   19.3945   30.2975 C.3         1 Y8L       0.0552
     26 C26        25.5886   19.5643   28.1267 C.2         1 Y8L       0.0878
     27 C27        24.5059   20.3945   28.7263 C.3         1 Y8L       0.0050
     28 H1         21.2928   25.6546   29.7388 H           1 Y8L       0.0562
     29 H2         23.0149   25.3360   29.8978 H           1 Y8L       0.0562
     30 H3         23.4955   27.5909   30.5447 H           1 Y8L       0.0833
     31 H4         21.9968   27.1891   31.3896 H           1 Y8L       0.0833
     32 H5         21.7369   29.2933   30.3222 H           1 Y8L       0.2015
     33 H6         20.7692   28.1672   29.5773 H           1 Y8L       0.2015
     34 H7         23.3616   29.1679   28.5905 H           1 Y8L       0.0833
     35 H8         21.7628   29.5949   27.9820 H           1 Y8L       0.0833
     36 H9         23.2073   27.7119   26.7836 H           1 Y8L       0.0562
     37 H10        21.4612   27.5769   26.8947 H           1 Y8L       0.0562
     38 H11        24.3484   25.5742   26.3737 H           1 Y8L       0.0490
     39 H12        24.3359   23.6930   24.8728 H           1 Y8L       0.0507
     40 H13        20.5669   24.4101   27.8451 H           1 Y8L       0.0490
     41 H14        20.5275   22.5898   26.2852 H           1 Y8L       0.0507
     42 H15        21.6852   21.9890   23.9095 H           1 Y8L       0.2141
     43 H16        23.4300   18.0500   22.8841 H           1 Y8L       0.0819
     44 H17        25.0048   17.5264   24.6502 H           1 Y8L       0.0541
     45 H18        27.6791   18.8916   30.7360 H           1 Y8L       0.0582
     46 H19        25.9400   19.0740   30.8627 H           1 Y8L       0.0582
     47 H20        26.9544   20.4683   30.4324 H           1 Y8L       0.0582
     48 H21        23.6952   20.6323   28.0459 H           1 Y8L       0.0473
     49 H22        24.9263   21.3326   29.0909 H           1 Y8L       0.0473
     50 H23        24.0635   19.8585   29.5660 H           1 Y8L       0.0473
@<TRIPOS>BOND
     1     1     2   1
     2     1     6   1
     3     2     3   1
     4     3     4   1
     5     4     5   1
     6     5     6   1
     7     6     7   1
     8     7     8  ar
     9     7    10  ar
    10     8     9  ar
    11     9    12  ar
    12    10    11  ar
    13    11    12  ar
    14    12    13   1
    15    13    14   1
    16    14    15  ar
    17    14    16  ar
    18    15    19  ar
    19    16    17  ar
    20    17    18  ar
    21    18    19  ar
    22    19    20   1
    23    20    21   1
    24    20    26   2
    25    21    22   1
    26    22    23   2
    27    22    24  am
    28    24    25   1
    29    24    26   1
    30    26    27   1
    31     1    28   1
    32     1    29   1
    33     2    30   1
    34     2    31   1
    35     3    32   1
    36     3    33   1
    37     4    34   1
    38     4    35   1
    39     5    36   1
    40     5    37   1
    41     8    38   1
    42     9    39   1
    43    10    40   1
    44    11    41   1
    45    13    42   1
    46    17    43   1
    47    18    44   1
    48    25    45   1
    49    25    46   1
    50    25    47   1
    51    27    48   1
    52    27    49   1
    53    27    50   1
@<TRIPOS>SUBSTRUCTURE
     1  Y8L      1

