@<TRIPOS>MOLECULE
2xnb_ligand_025
    50    53
SMALL
GAST_HUCK
****
This file was generated by PARSER (from files_GN.cpp)

@<TRIPOS>ATOM
      1 C17        26.2158   24.0145   23.2674 C.3         1 Y8L       0.0648
      2 C18        26.6263   24.8603   22.0329 C.3         1 Y8L      -0.0139
      3 N19        27.8851   25.6028   22.2667 N.4         1 Y8L       0.2297
      4 C20        27.8900   26.3993   23.5136 C.3         1 Y8L      -0.0139
      5 C21        27.4975   25.5164   24.7221 C.3         1 Y8L       0.0648
      6 N16        26.2381   24.8393   24.4638 N.pl3       1 Y8L      -0.3045
      7 C12        25.1472   24.9668   25.2942 C.ar        1 Y8L       0.0297
      8 C13        24.2772   23.8740   25.5519 C.ar        1 Y8L      -0.0528
      9 C14        23.1872   23.9902   26.4318 C.ar        1 Y8L      -0.0489
     10 C11        24.8425   26.1934   25.9399 C.ar        1 Y8L      -0.0528
     11 C10        23.7425   26.3177   26.8066 C.ar        1 Y8L      -0.0489
     12 C9         22.9174   25.2089   27.0913 C.ar        1 Y8L       0.0527
     13 N7         21.8553   25.2624   27.9474 N.pl3       1 Y8L      -0.2529
     14 C4         21.8117   25.8769   29.1586 C.ar        1 Y8L       0.1821
     15 N5         20.6800   25.7660   29.8998 N.ar        1 Y8L      -0.2810
     16 N3         22.8697   26.5335   29.7031 N.ar        1 Y8L      -0.2768
     17 C2         22.8244   27.0551   30.9559 C.ar        1 Y8L      -0.0078
     18 C1         21.6626   26.9061   31.7356 C.ar        1 Y8L      -0.0412
     19 C6         20.5389   26.2728   31.1618 C.ar        1 Y8L       0.0192
     20 C15        19.3164   26.0632   31.8503 C.2         1 Y8L       0.0635
     21 S23        18.3509   24.6875   31.5079 S.3         1 Y8L       0.0011
     22 C24        17.1357   25.0280   32.6588 C.2         1 Y8L       0.2827
     23 O28        16.1377   24.2953   32.8220 O.2         1 Y8L      -0.3738
     24 N25        17.4509   26.1799   33.2982 N.am        1 Y8L      -0.1962
     25 C29        16.6016   26.7142   34.3386 C.3         1 Y8L       0.0552
     26 C26        18.6176   26.7739   32.8615 C.2         1 Y8L       0.0878
     27 C27        19.0298   28.1055   33.3836 C.3         1 Y8L       0.0050
     28 H1         26.9112   23.1805   23.3861 H           1 Y8L       0.0562
     29 H2         25.2287   23.5989   23.0454 H           1 Y8L       0.0562
     30 H3         25.8344   25.5767   21.7976 H           1 Y8L       0.0833
     31 H4         26.7584   24.2078   21.1663 H           1 Y8L       0.0833
     32 H5         28.0460   26.2356   21.4794 H           1 Y8L       0.2015
     33 H6         28.6481   24.9259   22.3188 H           1 Y8L       0.2015
     34 H7         27.1900   27.2377   23.4198 H           1 Y8L       0.0833
     35 H8         28.8916   26.8063   23.6664 H           1 Y8L       0.0833
     36 H9         27.4962   26.1281   25.6257 H           1 Y8L       0.0562
     37 H10        28.2729   24.7593   24.8719 H           1 Y8L       0.0562
     38 H11        24.4694   22.9542   25.1500 H           1 Y8L       0.0490
     39 H12        22.6114   23.1662   26.6187 H           1 Y8L       0.0507
     40 H13        25.3847   27.0372   25.7417 H           1 Y8L       0.0490
     41 H14        23.5356   27.2347   27.2096 H           1 Y8L       0.0507
     42 H15        21.0989   24.6906   27.7320 H           1 Y8L       0.2141
     43 H16        23.6518   27.5265   31.3304 H           1 Y8L       0.0819
     44 H17        21.6617   27.2209   32.7113 H           1 Y8L       0.0541
     45 H18        15.7243   26.0948   34.5440 H           1 Y8L       0.0582
     46 H19        16.2341   27.7054   34.0614 H           1 Y8L       0.0582
     47 H20        17.1683   26.7954   35.2706 H           1 Y8L       0.0582
     48 H21        19.8609   28.5461   32.8381 H           1 Y8L       0.0473
     49 H22        19.3001   28.0214   34.4405 H           1 Y8L       0.0473
     50 H23        18.1991   28.8090   33.2943 H           1 Y8L       0.0473
@<TRIPOS>BOND
     1     1     2   1
     2     1     6   1
     3     2     3   1
     4     3     4   1
     5     4     5   1
     6     5     6   1
     7     6     7   1
     8     7     8  ar
     9     7    10  ar
    10     8     9  ar
    11     9    12  ar
    12    10    11  ar
    13    11    12  ar
    14    12    13   1
    15    13    14   1
    16    14    15  ar
    17    14    16  ar
    18    15    19  ar
    19    16    17  ar
    20    17    18  ar
    21    18    19  ar
    22    19    20   1
    23    20    21   1
    24    20    26   2
    25    21    22   1
    26    22    23   2
    27    22    24  am
    28    24    25   1
    29    24    26   1
    30    26    27   1
    31     1    28   1
    32     1    29   1
    33     2    30   1
    34     2    31   1
    35     3    32   1
    36     3    33   1
    37     4    34   1
    38     4    35   1
    39     5    36   1
    40     5    37   1
    41     8    38   1
    42     9    39   1
    43    10    40   1
    44    11    41   1
    45    13    42   1
    46    17    43   1
    47    18    44   1
    48    25    45   1
    49    25    46   1
    50    25    47   1
    51    27    48   1
    52    27    49   1
    53    27    50   1
@<TRIPOS>SUBSTRUCTURE
     1  Y8L      1

