@<TRIPOS>MOLECULE
2xnb_ligand_043
    50    53
SMALL
GAST_HUCK
****
This file was generated by PARSER (from files_GN.cpp)

@<TRIPOS>ATOM
      1 C17        27.1654   24.8103   23.8294 C.3         1 Y8L       0.0648
      2 C18        27.5575   25.9798   22.8877 C.3         1 Y8L      -0.0139
      3 N19        28.2681   25.4863   21.6840 N.4         1 Y8L       0.2297
      4 C20        27.5351   24.4170   20.9816 C.3         1 Y8L      -0.0139
      5 C21        27.2407   23.2623   21.9705 C.3         1 Y8L       0.0648
      6 N16        26.4455   23.7642   23.1024 N.pl3       1 Y8L      -0.3045
      7 C12        25.1758   23.3031   23.4442 C.ar        1 Y8L       0.0297
      8 C13        24.4814   23.6882   24.6317 C.ar        1 Y8L      -0.0528
      9 C14        23.1813   23.2236   24.9529 C.ar        1 Y8L      -0.0489
     10 C11        24.4445   22.4155   22.6046 C.ar        1 Y8L      -0.0528
     11 C10        23.1525   21.9500   22.9206 C.ar        1 Y8L      -0.0489
     12 C9         22.5122   22.3173   24.1183 C.ar        1 Y8L       0.0527
     13 N7         21.2616   21.9010   24.5085 N.pl3       1 Y8L      -0.2529
     14 C4         20.6488   20.7196   24.2401 C.ar        1 Y8L       0.1821
     15 N5         21.2291   19.7145   23.5362 N.ar        1 Y8L      -0.2810
     16 N3         19.3941   20.5250   24.7324 N.ar        1 Y8L      -0.2768
     17 C2         18.7262   19.3616   24.5347 C.ar        1 Y8L      -0.0078
     18 C1         19.3286   18.3112   23.8147 C.ar        1 Y8L      -0.0412
     19 C6         20.6232   18.5271   23.2835 C.ar        1 Y8L       0.0192
     20 C15        21.3323   17.5343   22.5613 C.2         1 Y8L       0.0635
     21 S23        21.4104   15.8976   23.0602 S.3         1 Y8L       0.0011
     22 C24        22.4932   15.4027   21.8392 C.2         1 Y8L       0.2827
     23 O28        22.9109   14.2236   21.7350 O.2         1 Y8L      -0.3738
     24 N25        22.7965   16.4736   21.0521 N.am        1 Y8L      -0.1962
     25 C29        23.6910   16.3628   19.9294 C.3         1 Y8L       0.0552
     26 C26        22.1675   17.6424   21.4236 C.2         1 Y8L       0.0878
     27 C27        22.3243   18.9008   20.6442 C.3         1 Y8L       0.0050
     28 H1         26.6439   25.2629   24.6668 H           1 Y8L       0.0562
     29 H2         28.0763   24.3735   24.2475 H           1 Y8L       0.0562
     30 H3         28.2206   26.6631   23.4251 H           1 Y8L       0.0833
     31 H4         26.6647   26.5357   22.5831 H           1 Y8L       0.0833
     32 H5         29.1657   25.1034   21.9866 H           1 Y8L       0.2015
     33 H6         28.4308   26.2641   21.0404 H           1 Y8L       0.2015
     34 H7         28.1474   24.0484   20.1553 H           1 Y8L       0.0833
     35 H8         26.5996   24.8115   20.5667 H           1 Y8L       0.0833
     36 H9         28.1852   22.8703   22.3530 H           1 Y8L       0.0562
     37 H10        26.8202   22.4441   21.3942 H           1 Y8L       0.0562
     38 H11        24.8794   24.3260   25.3081 H           1 Y8L       0.0490
     39 H12        22.7242   23.5648   25.8084 H           1 Y8L       0.0507
     40 H13        24.8014   22.0828   21.7143 H           1 Y8L       0.0490
     41 H14        22.6955   21.3505   22.2462 H           1 Y8L       0.0507
     42 H15        20.7827   22.4997   25.0982 H           1 Y8L       0.2141
     43 H16        17.7885   19.2478   24.9250 H           1 Y8L       0.0819
     44 H17        18.8283   17.4274   23.6733 H           1 Y8L       0.0541
     45 H18        24.1117   15.3615   19.8077 H           1 Y8L       0.0582
     46 H19        24.5266   17.0571   20.0532 H           1 Y8L       0.0582
     47 H20        23.1618   16.6070   19.0049 H           1 Y8L       0.0582
     48 H21        21.6337   19.6777   20.9673 H           1 Y8L       0.0473
     49 H22        22.1167   18.7184   19.5894 H           1 Y8L       0.0473
     50 H23        23.3478   19.2696   20.7467 H           1 Y8L       0.0473
@<TRIPOS>BOND
     1     1     2   1
     2     1     6   1
     3     2     3   1
     4     3     4   1
     5     4     5   1
     6     5     6   1
     7     6     7   1
     8     7     8  ar
     9     7    10  ar
    10     8     9  ar
    11     9    12  ar
    12    10    11  ar
    13    11    12  ar
    14    12    13   1
    15    13    14   1
    16    14    15  ar
    17    14    16  ar
    18    15    19  ar
    19    16    17  ar
    20    17    18  ar
    21    18    19  ar
    22    19    20   1
    23    20    21   1
    24    20    26   2
    25    21    22   1
    26    22    23   2
    27    22    24  am
    28    24    25   1
    29    24    26   1
    30    26    27   1
    31     1    28   1
    32     1    29   1
    33     2    30   1
    34     2    31   1
    35     3    32   1
    36     3    33   1
    37     4    34   1
    38     4    35   1
    39     5    36   1
    40     5    37   1
    41     8    38   1
    42     9    39   1
    43    10    40   1
    44    11    41   1
    45    13    42   1
    46    17    43   1
    47    18    44   1
    48    25    45   1
    49    25    46   1
    50    25    47   1
    51    27    48   1
    52    27    49   1
    53    27    50   1
@<TRIPOS>SUBSTRUCTURE
     1  Y8L      1

