@<TRIPOS>MOLECULE
2xnb_ligand_012
    50    53
SMALL
GAST_HUCK
****
This file was generated by PARSER (from files_GN.cpp)

@<TRIPOS>ATOM
      1 C17        19.8423   25.7561   29.6112 C.3         1 Y8L       0.0648
      2 C18        18.7814   25.0810   30.5208 C.3         1 Y8L      -0.0139
      3 N19        18.4727   25.9408   31.6727 N.4         1 Y8L       0.2297
      4 C20        19.6678   26.1541   32.4986 C.3         1 Y8L      -0.0139
      5 C21        20.7889   26.8409   31.6729 C.3         1 Y8L       0.0648
      6 N16        20.8704   26.5776   30.2373 N.pl3       1 Y8L      -0.3045
      7 C12        21.8653   27.1832   29.4672 C.ar        1 Y8L       0.0297
      8 C13        22.8023   28.0925   30.0297 C.ar        1 Y8L      -0.0528
      9 C14        23.8081   28.7125   29.2772 C.ar        1 Y8L      -0.0489
     10 C11        22.0347   26.9367   28.0710 C.ar        1 Y8L      -0.0528
     11 C10        23.0497   27.5470   27.3035 C.ar        1 Y8L      -0.0489
     12 C9         23.9423   28.4714   27.8860 C.ar        1 Y8L       0.0527
     13 N7         24.9325   29.0327   27.1108 N.pl3       1 Y8L      -0.2529
     14 C4         25.6482   30.1601   27.3495 C.ar        1 Y8L       0.1821
     15 N5         26.6940   30.4705   26.5364 N.ar        1 Y8L      -0.2810
     16 N3         25.3556   31.0104   28.3731 N.ar        1 Y8L      -0.2768
     17 C2         26.0757   32.1302   28.6099 C.ar        1 Y8L      -0.0078
     18 C1         27.1655   32.4503   27.7886 C.ar        1 Y8L      -0.0412
     19 C6         27.4666   31.5796   26.7181 C.ar        1 Y8L       0.0192
     20 C15        28.4950   31.8954   25.8065 C.2         1 Y8L       0.0635
     21 S23        28.5874   33.4331   25.0502 S.3         1 Y8L       0.0011
     22 C24        30.0015   33.0841   24.1554 C.2         1 Y8L       0.2827
     23 O28        30.5140   33.9076   23.3656 O.2         1 Y8L      -0.3738
     24 N25        30.4034   31.8162   24.4389 N.am        1 Y8L      -0.1962
     25 C29        31.5816   31.2553   23.8290 C.3         1 Y8L       0.0552
     26 C26        29.5979   31.1461   25.3335 C.2         1 Y8L       0.0878
     27 C27        29.9107   29.7849   25.8247 C.3         1 Y8L       0.0050
     28 H1         19.3019   26.3906   28.9035 H           1 Y8L       0.0562
     29 H2         20.3200   24.9460   29.0526 H           1 Y8L       0.0562
     30 H3         19.1469   24.1097   30.8701 H           1 Y8L       0.0833
     31 H4         17.8632   24.9011   29.9604 H           1 Y8L       0.0833
     32 H5         17.7416   25.5024   32.2378 H           1 Y8L       0.2015
     33 H6         18.1491   26.8512   31.3410 H           1 Y8L       0.2015
     34 H7         20.0160   25.1917   32.8853 H           1 Y8L       0.0833
     35 H8         19.3982   26.7816   33.3506 H           1 Y8L       0.0833
     36 H9         21.7328   26.5497   32.1433 H           1 Y8L       0.0562
     37 H10        20.6596   27.9197   31.7999 H           1 Y8L       0.0562
     38 H11        22.7889   28.3277   31.0249 H           1 Y8L       0.0490
     39 H12        24.4543   29.3246   29.7764 H           1 Y8L       0.0507
     40 H13        21.4177   26.2881   27.5768 H           1 Y8L       0.0490
     41 H14        23.1276   27.3115   26.3056 H           1 Y8L       0.0507
     42 H15        25.1431   28.5749   26.2758 H           1 Y8L       0.2141
     43 H16        25.8318   32.7260   29.4046 H           1 Y8L       0.0819
     44 H17        27.7182   33.2927   27.9620 H           1 Y8L       0.0541
     45 H18        32.0733   31.9410   23.1320 H           1 Y8L       0.0582
     46 H19        31.3078   30.3620   23.2656 H           1 Y8L       0.0582
     47 H20        32.3149   30.9873   24.5912 H           1 Y8L       0.0582
     48 H21        29.2023   29.4318   26.5729 H           1 Y8L       0.0473
     49 H22        30.9009   29.7880   26.2820 H           1 Y8L       0.0473
     50 H23        29.9040   29.0830   24.9880 H           1 Y8L       0.0473
@<TRIPOS>BOND
     1     1     2   1
     2     1     6   1
     3     2     3   1
     4     3     4   1
     5     4     5   1
     6     5     6   1
     7     6     7   1
     8     7     8  ar
     9     7    10  ar
    10     8     9  ar
    11     9    12  ar
    12    10    11  ar
    13    11    12  ar
    14    12    13   1
    15    13    14   1
    16    14    15  ar
    17    14    16  ar
    18    15    19  ar
    19    16    17  ar
    20    17    18  ar
    21    18    19  ar
    22    19    20   1
    23    20    21   1
    24    20    26   2
    25    21    22   1
    26    22    23   2
    27    22    24  am
    28    24    25   1
    29    24    26   1
    30    26    27   1
    31     1    28   1
    32     1    29   1
    33     2    30   1
    34     2    31   1
    35     3    32   1
    36     3    33   1
    37     4    34   1
    38     4    35   1
    39     5    36   1
    40     5    37   1
    41     8    38   1
    42     9    39   1
    43    10    40   1
    44    11    41   1
    45    13    42   1
    46    17    43   1
    47    18    44   1
    48    25    45   1
    49    25    46   1
    50    25    47   1
    51    27    48   1
    52    27    49   1
    53    27    50   1
@<TRIPOS>SUBSTRUCTURE
     1  Y8L      1

