@<TRIPOS>MOLECULE
2xnb_ligand_044
    50    53
SMALL
GAST_HUCK
****
This file was generated by PARSER (from files_GN.cpp)

@<TRIPOS>ATOM
      1 C17        19.5297   26.0777   33.7123 C.3         1 Y8L       0.0648
      2 C18        19.3558   27.3866   34.5173 C.3         1 Y8L      -0.0139
      3 N19        17.9177   27.7063   34.6373 N.4         1 Y8L       0.2297
      4 C20        17.2162   27.7812   33.3363 C.3         1 Y8L      -0.0139
      5 C21        17.4599   26.5081   32.4802 C.3         1 Y8L       0.0648
      6 N16        18.8792   26.1847   32.4156 N.pl3       1 Y8L      -0.3045
      7 C12        19.5390   25.9619   31.2288 C.ar        1 Y8L       0.0297
      8 C13        18.8321   25.8458   30.0024 C.ar        1 Y8L      -0.0528
      9 C14        19.4814   25.5784   28.7891 C.ar        1 Y8L      -0.0489
     10 C11        20.9491   25.7911   31.1579 C.ar        1 Y8L      -0.0528
     11 C10        21.6058   25.5144   29.9470 C.ar        1 Y8L      -0.0489
     12 C9         20.8809   25.4133   28.7370 C.ar        1 Y8L       0.0527
     13 N7         21.4312   25.0955   27.5325 N.pl3       1 Y8L      -0.2529
     14 C4         22.4801   25.6771   26.9100 C.ar        1 Y8L       0.1821
     15 N5         23.1715   26.7449   27.3922 N.ar        1 Y8L      -0.2810
     16 N3         22.7974   25.2045   25.6805 N.ar        1 Y8L      -0.2768
     17 C2         23.7513   25.7907   24.9121 C.ar        1 Y8L      -0.0078
     18 C1         24.4417   26.9226   25.3902 C.ar        1 Y8L      -0.0412
     19 C6         24.1632   27.3733   26.7021 C.ar        1 Y8L       0.0192
     20 C15        24.7763   28.5083   27.2971 C.2         1 Y8L       0.0635
     21 S23        23.9543   29.4555   28.4740 S.3         1 Y8L       0.0011
     22 C24        25.1703   30.6490   28.6094 C.2         1 Y8L       0.2827
     23 O28        25.0677   31.6378   29.3672 O.2         1 Y8L      -0.3738
     24 N25        26.1883   30.3340   27.7656 N.am        1 Y8L      -0.1962
     25 C29        27.3306   31.2032   27.6113 C.3         1 Y8L       0.0552
     26 C26        26.0247   29.1498   27.0810 C.2         1 Y8L       0.0878
     27 C27        27.0930   28.5874   26.2119 C.3         1 Y8L       0.0050
     28 H1         19.0613   25.2633   34.2708 H           1 Y8L       0.0562
     29 H2         20.5898   25.8253   33.6634 H           1 Y8L       0.0562
     30 H3         19.8841   28.2062   34.0229 H           1 Y8L       0.0833
     31 H4         19.7697   27.2621   35.5189 H           1 Y8L       0.0833
     32 H5         17.8147   28.5960   35.1277 H           1 Y8L       0.2015
     33 H6         17.4735   26.9768   35.2004 H           1 Y8L       0.2015
     34 H7         17.5595   28.6672   32.7978 H           1 Y8L       0.0833
     35 H8         16.1460   27.8970   33.5299 H           1 Y8L       0.0833
     36 H9         17.0197   26.7045   31.5004 H           1 Y8L       0.0562
     37 H10        16.9143   25.6685   32.9181 H           1 Y8L       0.0562
     38 H11        17.8121   25.8918   29.9886 H           1 Y8L       0.0490
     39 H12        18.9257   25.4943   27.9316 H           1 Y8L       0.0507
     40 H13        21.5309   25.9093   31.9884 H           1 Y8L       0.0490
     41 H14        22.6155   25.3607   29.9590 H           1 Y8L       0.0507
     42 H15        20.9556   24.4298   27.0104 H           1 Y8L       0.2141
     43 H16        23.9486   25.4174   23.9771 H           1 Y8L       0.0819
     44 H17        25.1065   27.4064   24.7826 H           1 Y8L       0.0541
     45 H18        27.2478   32.1282   28.1939 H           1 Y8L       0.0582
     46 H19        27.4350   31.4866   26.5575 H           1 Y8L       0.0582
     47 H20        28.2410   30.6879   27.9359 H           1 Y8L       0.0582
     48 H21        26.9358   27.5248   26.0126 H           1 Y8L       0.0473
     49 H22        28.0629   28.6581   26.7021 H           1 Y8L       0.0473
     50 H23        27.1097   29.1397   25.2746 H           1 Y8L       0.0473
@<TRIPOS>BOND
     1     1     2   1
     2     1     6   1
     3     2     3   1
     4     3     4   1
     5     4     5   1
     6     5     6   1
     7     6     7   1
     8     7     8  ar
     9     7    10  ar
    10     8     9  ar
    11     9    12  ar
    12    10    11  ar
    13    11    12  ar
    14    12    13   1
    15    13    14   1
    16    14    15  ar
    17    14    16  ar
    18    15    19  ar
    19    16    17  ar
    20    17    18  ar
    21    18    19  ar
    22    19    20   1
    23    20    21   1
    24    20    26   2
    25    21    22   1
    26    22    23   2
    27    22    24  am
    28    24    25   1
    29    24    26   1
    30    26    27   1
    31     1    28   1
    32     1    29   1
    33     2    30   1
    34     2    31   1
    35     3    32   1
    36     3    33   1
    37     4    34   1
    38     4    35   1
    39     5    36   1
    40     5    37   1
    41     8    38   1
    42     9    39   1
    43    10    40   1
    44    11    41   1
    45    13    42   1
    46    17    43   1
    47    18    44   1
    48    25    45   1
    49    25    46   1
    50    25    47   1
    51    27    48   1
    52    27    49   1
    53    27    50   1
@<TRIPOS>SUBSTRUCTURE
     1  Y8L      1

