@<TRIPOS>MOLECULE
2xnb_ligand_034
    50    53
SMALL
GAST_HUCK
****
This file was generated by PARSER (from files_GN.cpp)

@<TRIPOS>ATOM
      1 C17        27.3242   32.3121   25.9150 C.3         1 Y8L       0.0648
      2 C18        28.6086   32.8550   25.2355 C.3         1 Y8L      -0.0139
      3 N19        29.3743   31.7863   24.5763 N.4         1 Y8L       0.2297
      4 C20        29.7401   30.7263   25.5252 C.3         1 Y8L      -0.0139
      5 C21        28.4754   30.0858   26.1484 C.3         1 Y8L       0.0648
      6 N16        27.3240   30.9419   26.4255 N.pl3       1 Y8L      -0.3045
      7 C12        26.2017   30.4297   27.0695 C.ar        1 Y8L       0.0297
      8 C13        26.0981   29.0617   27.4674 C.ar        1 Y8L      -0.0528
      9 C14        24.9693   28.5411   28.1204 C.ar        1 Y8L      -0.0489
     10 C11        25.0619   31.2307   27.3882 C.ar        1 Y8L      -0.0528
     11 C10        23.9339   30.7213   28.0485 C.ar        1 Y8L      -0.0489
     12 C9         23.8596   29.3619   28.4036 C.ar        1 Y8L       0.0527
     13 N7         22.7486   28.9290   29.0566 N.pl3       1 Y8L      -0.2529
     14 C4         22.1086   27.7458   28.9070 C.ar        1 Y8L       0.1821
     15 N5         22.4773   26.7742   28.0237 N.ar        1 Y8L      -0.2810
     16 N3         20.9925   27.5521   29.6469 N.ar        1 Y8L      -0.2768
     17 C2         20.2539   26.4212   29.5369 C.ar        1 Y8L      -0.0078
     18 C1         20.6399   25.4205   28.6305 C.ar        1 Y8L      -0.0412
     19 C6         21.8026   25.6049   27.8336 C.ar        1 Y8L       0.0192
     20 C15        22.2397   24.6346   26.8662 C.2         1 Y8L       0.0635
     21 S23        21.6322   23.0218   26.8751 S.3         1 Y8L       0.0011
     22 C24        22.4906   22.4677   25.5079 C.2         1 Y8L       0.2827
     23 O28        22.3715   21.2986   25.0701 O.2         1 Y8L      -0.3738
     24 N25        23.2421   23.4937   25.0395 N.am        1 Y8L      -0.1962
     25 C29        24.0624   23.3277   23.8579 C.3         1 Y8L       0.0552
     26 C26        23.1409   24.6747   25.7618 C.2         1 Y8L       0.0878
     27 C27        23.9334   25.8676   25.3413 C.3         1 Y8L       0.0050
     28 H1         26.5141   32.3905   25.1831 H           1 Y8L       0.0562
     29 H2         27.1076   33.0009   26.7365 H           1 Y8L       0.0562
     30 H3         29.2416   33.3416   25.9813 H           1 Y8L       0.0833
     31 H4         28.3454   33.6096   24.4910 H           1 Y8L       0.0833
     32 H5         30.2289   32.1864   24.1828 H           1 Y8L       0.2015
     33 H6         28.8152   31.3816   23.8224 H           1 Y8L       0.2015
     34 H7         30.3785   31.1401   26.3112 H           1 Y8L       0.0833
     35 H8         30.3184   29.9650   24.9965 H           1 Y8L       0.0833
     36 H9         28.8078   29.6157   27.0785 H           1 Y8L       0.0562
     37 H10        28.1439   29.2980   25.4653 H           1 Y8L       0.0562
     38 H11        26.8565   28.4022   27.2864 H           1 Y8L       0.0490
     39 H12        24.9718   27.5614   28.4158 H           1 Y8L       0.0507
     40 H13        25.0275   32.2228   27.1449 H           1 Y8L       0.0490
     41 H14        23.1506   31.3474   28.2546 H           1 Y8L       0.0507
     42 H15        22.2996   29.5880   29.6160 H           1 Y8L       0.2141
     43 H16        19.4150   26.3072   30.1091 H           1 Y8L       0.0819
     44 H17        20.0568   24.5830   28.5573 H           1 Y8L       0.0541
     45 H18        23.9740   22.3346   23.4119 H           1 Y8L       0.0582
     46 H19        25.1117   23.4827   24.1139 H           1 Y8L       0.0582
     47 H20        23.7721   24.0518   23.0937 H           1 Y8L       0.0582
     48 H21        23.7993   26.7429   25.9555 H           1 Y8L       0.0473
     49 H22        23.6502   26.1518   24.3249 H           1 Y8L       0.0473
     50 H23        24.9984   25.6191   25.3639 H           1 Y8L       0.0473
@<TRIPOS>BOND
     1     1     2   1
     2     1     6   1
     3     2     3   1
     4     3     4   1
     5     4     5   1
     6     5     6   1
     7     6     7   1
     8     7     8  ar
     9     7    10  ar
    10     8     9  ar
    11     9    12  ar
    12    10    11  ar
    13    11    12  ar
    14    12    13   1
    15    13    14   1
    16    14    15  ar
    17    14    16  ar
    18    15    19  ar
    19    16    17  ar
    20    17    18  ar
    21    18    19  ar
    22    19    20   1
    23    20    21   1
    24    20    26   2
    25    21    22   1
    26    22    23   2
    27    22    24  am
    28    24    25   1
    29    24    26   1
    30    26    27   1
    31     1    28   1
    32     1    29   1
    33     2    30   1
    34     2    31   1
    35     3    32   1
    36     3    33   1
    37     4    34   1
    38     4    35   1
    39     5    36   1
    40     5    37   1
    41     8    38   1
    42     9    39   1
    43    10    40   1
    44    11    41   1
    45    13    42   1
    46    17    43   1
    47    18    44   1
    48    25    45   1
    49    25    46   1
    50    25    47   1
    51    27    48   1
    52    27    49   1
    53    27    50   1
@<TRIPOS>SUBSTRUCTURE
     1  Y8L      1

