@<TRIPOS>MOLECULE
2xnb_ligand_045
    50    53
SMALL
GAST_HUCK
****
This file was generated by PARSER (from files_GN.cpp)

@<TRIPOS>ATOM
      1 C17        29.1248   29.8624   26.6394 C.3         1 Y8L       0.0648
      2 C18        30.3413   30.3319   25.7850 C.3         1 Y8L      -0.0139
      3 N19        30.1328   31.6448   25.1550 N.4         1 Y8L       0.2297
      4 C20        28.8630   31.7123   24.4291 C.3         1 Y8L      -0.0139
      5 C21        27.6960   31.5311   25.4260 C.3         1 Y8L       0.0648
      6 N16        27.7976   30.3997   26.3376 N.pl3       1 Y8L      -0.3045
      7 C12        26.6737   29.9585   27.0263 C.ar        1 Y8L       0.0297
      8 C13        26.5082   28.6021   27.4346 C.ar        1 Y8L      -0.0528
      9 C14        25.3619   28.1432   28.1074 C.ar        1 Y8L      -0.0489
     10 C11        25.5939   30.8250   27.3865 C.ar        1 Y8L      -0.0528
     11 C10        24.4744   30.3854   28.1148 C.ar        1 Y8L      -0.0489
     12 C9         24.3285   29.0311   28.4731 C.ar        1 Y8L       0.0527
     13 N7         23.2409   28.6559   29.2153 N.pl3       1 Y8L      -0.2529
     14 C4         22.7205   27.4130   29.3436 C.ar        1 Y8L       0.1821
     15 N5         21.6741   27.2266   30.1944 N.ar        1 Y8L      -0.2810
     16 N3         23.1915   26.3549   28.6288 N.ar        1 Y8L      -0.2768
     17 C2         22.6294   25.1191   28.7422 C.ar        1 Y8L      -0.0078
     18 C1         21.5453   24.9189   29.6124 C.ar        1 Y8L      -0.0412
     19 C6         21.0730   26.0172   30.3636 C.ar        1 Y8L       0.0192
     20 C15        19.9945   25.8604   31.2650 C.2         1 Y8L       0.0635
     21 S23        18.5581   25.0248   30.8345 S.3         1 Y8L       0.0011
     22 C24        17.8017   25.2149   32.3586 C.2         1 Y8L       0.2827
     23 O28        16.6589   24.7620   32.6029 O.2         1 Y8L      -0.3738
     24 N25        18.6430   25.8810   33.1899 N.am        1 Y8L      -0.1962
     25 C29        18.2911   26.1609   34.5606 C.3         1 Y8L       0.0552
     26 C26        19.8467   26.2442   32.6181 C.2         1 Y8L       0.0878
     27 C27        20.9191   26.9240   33.3873 C.3         1 Y8L       0.0050
     28 H1         29.3361   30.1098   27.6842 H           1 Y8L       0.0562
     29 H2         29.1195   28.7744   26.5469 H           1 Y8L       0.0562
     30 H3         30.5550   29.5990   25.0000 H           1 Y8L       0.0833
     31 H4         31.2322   30.3992   26.4112 H           1 Y8L       0.0833
     32 H5         30.9030   31.8283   24.5070 H           1 Y8L       0.2015
     33 H6         30.1232   32.3657   25.8746 H           1 Y8L       0.2015
     34 H7         28.8259   30.9472   23.6489 H           1 Y8L       0.0833
     35 H8         28.7925   32.6932   23.9561 H           1 Y8L       0.0833
     36 H9         26.7900   31.4343   24.8197 H           1 Y8L       0.0562
     37 H10        27.6145   32.4447   26.0246 H           1 Y8L       0.0562
     38 H11        27.2108   27.8950   27.2293 H           1 Y8L       0.0490
     39 H12        25.2990   27.1524   28.3558 H           1 Y8L       0.0507
     40 H13        25.6289   31.8229   27.1632 H           1 Y8L       0.0490
     41 H14        23.7522   31.0649   28.3787 H           1 Y8L       0.0507
     42 H15        22.7440   29.3682   29.6531 H           1 Y8L       0.2141
     43 H16        22.9984   24.3393   28.1915 H           1 Y8L       0.0819
     44 H17        21.1258   23.9911   29.7045 H           1 Y8L       0.0541
     45 H18        17.2970   25.8009   34.8358 H           1 Y8L       0.0582
     46 H19        18.3111   27.2367   34.7377 H           1 Y8L       0.0582
     47 H20        19.0071   25.6766   35.2249 H           1 Y8L       0.0582
     48 H21        21.8214   27.0818   32.7991 H           1 Y8L       0.0473
     49 H22        21.1965   26.3198   34.2538 H           1 Y8L       0.0473
     50 H23        20.5610   27.8935   33.7354 H           1 Y8L       0.0473
@<TRIPOS>BOND
     1     1     2   1
     2     1     6   1
     3     2     3   1
     4     3     4   1
     5     4     5   1
     6     5     6   1
     7     6     7   1
     8     7     8  ar
     9     7    10  ar
    10     8     9  ar
    11     9    12  ar
    12    10    11  ar
    13    11    12  ar
    14    12    13   1
    15    13    14   1
    16    14    15  ar
    17    14    16  ar
    18    15    19  ar
    19    16    17  ar
    20    17    18  ar
    21    18    19  ar
    22    19    20   1
    23    20    21   1
    24    20    26   2
    25    21    22   1
    26    22    23   2
    27    22    24  am
    28    24    25   1
    29    24    26   1
    30    26    27   1
    31     1    28   1
    32     1    29   1
    33     2    30   1
    34     2    31   1
    35     3    32   1
    36     3    33   1
    37     4    34   1
    38     4    35   1
    39     5    36   1
    40     5    37   1
    41     8    38   1
    42     9    39   1
    43    10    40   1
    44    11    41   1
    45    13    42   1
    46    17    43   1
    47    18    44   1
    48    25    45   1
    49    25    46   1
    50    25    47   1
    51    27    48   1
    52    27    49   1
    53    27    50   1
@<TRIPOS>SUBSTRUCTURE
     1  Y8L      1

