@<TRIPOS>MOLECULE
2xnb_ligand_048
    50    53
SMALL
GAST_HUCK
****
This file was generated by PARSER (from files_GN.cpp)

@<TRIPOS>ATOM
      1 C17        23.0678   26.7071   27.8708 C.3         1 Y8L       0.0648
      2 C18        22.5105   28.1169   28.2152 C.3         1 Y8L      -0.0139
      3 N19        22.1516   28.2137   29.6503 N.4         1 Y8L       0.2297
      4 C20        21.2201   27.1529   30.0973 C.3         1 Y8L      -0.0139
      5 C21        21.7676   25.7496   29.7326 C.3         1 Y8L       0.0648
      6 N16        22.1292   25.6870   28.3219 N.pl3       1 Y8L      -0.3045
      7 C12        21.6276   24.7358   27.4727 C.ar        1 Y8L       0.0297
      8 C13        22.4730   24.0175   26.5766 C.ar        1 Y8L      -0.0528
      9 C14        21.9658   23.0567   25.6957 C.ar        1 Y8L      -0.0489
     10 C11        20.2359   24.4287   27.4247 C.ar        1 Y8L      -0.0528
     11 C10        19.7248   23.4923   26.5198 C.ar        1 Y8L      -0.0489
     12 C9         20.5826   22.7766   25.6535 C.ar        1 Y8L       0.0527
     13 N7         20.1088   21.8975   24.7309 N.pl3       1 Y8L      -0.2529
     14 C4         19.4232   20.7632   24.9943 C.ar        1 Y8L       0.1821
     15 N5         19.1551   20.3199   26.2572 N.ar        1 Y8L      -0.2810
     16 N3         19.0614   19.9876   23.9377 N.ar        1 Y8L      -0.2768
     17 C2         18.4328   18.7981   24.1134 C.ar        1 Y8L      -0.0078
     18 C1         18.1798   18.3211   25.4103 C.ar        1 Y8L      -0.0412
     19 C6         18.5494   19.1293   26.5018 C.ar        1 Y8L       0.0192
     20 C15        18.3891   18.7036   27.8335 C.2         1 Y8L       0.0635
     21 S23        19.2085   17.3280   28.4539 S.3         1 Y8L       0.0011
     22 C24        18.6252   17.5190   30.0530 C.2         1 Y8L       0.2827
     23 O28        18.9398   16.7467   30.9895 O.2         1 Y8L      -0.3738
     24 N25        17.8130   18.6106   30.1011 N.am        1 Y8L      -0.1962
     25 C29        17.1682   19.0244   31.3204 C.3         1 Y8L       0.0552
     26 C26        17.6707   19.2767   28.9012 C.2         1 Y8L       0.0878
     27 C27        16.7962   20.4652   28.7291 C.3         1 Y8L       0.0050
     28 H1         24.0389   26.5554   28.3579 H           1 Y8L       0.0562
     29 H2         23.2260   26.6978   26.7874 H           1 Y8L       0.0562
     30 H3         21.6231   28.3309   27.6049 H           1 Y8L       0.0833
     31 H4         23.2714   28.8675   27.9903 H           1 Y8L       0.0833
     32 H5         21.7329   29.1347   29.8330 H           1 Y8L       0.2015
     33 H6         23.0140   28.1307   30.1960 H           1 Y8L       0.2015
     34 H7         20.2386   27.3061   29.6358 H           1 Y8L       0.0833
     35 H8         21.1053   27.2262   31.1812 H           1 Y8L       0.0833
     36 H9         21.0383   24.9943   30.0372 H           1 Y8L       0.0562
     37 H10        22.6680   25.5563   30.3262 H           1 Y8L       0.0562
     38 H11        23.4892   24.1545   26.5950 H           1 Y8L       0.0490
     39 H12        22.6153   22.5650   25.0756 H           1 Y8L       0.0507
     40 H13        19.5621   24.9486   27.9953 H           1 Y8L       0.0490
     41 H14        18.7123   23.3395   26.4908 H           1 Y8L       0.0507
     42 H15        20.3917   22.0372   23.8101 H           1 Y8L       0.2141
     43 H16        18.1818   18.2389   23.2972 H           1 Y8L       0.0819
     44 H17        17.7276   17.4159   25.5463 H           1 Y8L       0.0541
     45 H18        17.4134   18.3902   32.1745 H           1 Y8L       0.0582
     46 H19        16.0854   18.9956   31.1977 H           1 Y8L       0.0582
     47 H20        17.4678   20.0415   31.5770 H           1 Y8L       0.0582
     48 H21        16.7717   20.8199   27.6941 H           1 Y8L       0.0473
     49 H22        17.1597   21.2768   29.3641 H           1 Y8L       0.0473
     50 H23        15.7735   20.2119   29.0255 H           1 Y8L       0.0473
@<TRIPOS>BOND
     1     1     2   1
     2     1     6   1
     3     2     3   1
     4     3     4   1
     5     4     5   1
     6     5     6   1
     7     6     7   1
     8     7     8  ar
     9     7    10  ar
    10     8     9  ar
    11     9    12  ar
    12    10    11  ar
    13    11    12  ar
    14    12    13   1
    15    13    14   1
    16    14    15  ar
    17    14    16  ar
    18    15    19  ar
    19    16    17  ar
    20    17    18  ar
    21    18    19  ar
    22    19    20   1
    23    20    21   1
    24    20    26   2
    25    21    22   1
    26    22    23   2
    27    22    24  am
    28    24    25   1
    29    24    26   1
    30    26    27   1
    31     1    28   1
    32     1    29   1
    33     2    30   1
    34     2    31   1
    35     3    32   1
    36     3    33   1
    37     4    34   1
    38     4    35   1
    39     5    36   1
    40     5    37   1
    41     8    38   1
    42     9    39   1
    43    10    40   1
    44    11    41   1
    45    13    42   1
    46    17    43   1
    47    18    44   1
    48    25    45   1
    49    25    46   1
    50    25    47   1
    51    27    48   1
    52    27    49   1
    53    27    50   1
@<TRIPOS>SUBSTRUCTURE
     1  Y8L      1

