@<TRIPOS>MOLECULE
2xnb_ligand_052
    50    53
SMALL
GAST_HUCK
****
This file was generated by PARSER (from files_GN.cpp)

@<TRIPOS>ATOM
      1 C17        25.4618   19.3616   23.8095 C.3         1 Y8L       0.0648
      2 C18        25.9528   18.7400   22.4735 C.3         1 Y8L      -0.0139
      3 N19        26.5150   19.7689   21.5680 N.4         1 Y8L       0.2297
      4 C20        25.6240   20.9309   21.3437 C.3         1 Y8L      -0.0139
      5 C21        25.1447   21.5176   22.6929 C.3         1 Y8L       0.0648
      6 N16        24.5712   20.4717   23.5196 N.pl3       1 Y8L      -0.3045
      7 C12        23.2574   20.4786   23.9273 C.ar        1 Y8L       0.0297
      8 C13        22.8763   19.9983   25.2071 C.ar        1 Y8L      -0.0528
      9 C14        21.5328   19.9947   25.6257 C.ar        1 Y8L      -0.0489
     10 C11        22.2217   20.9505   23.0783 C.ar        1 Y8L      -0.0528
     11 C10        20.8722   20.8982   23.4706 C.ar        1 Y8L      -0.0489
     12 C9         20.5193   20.4205   24.7471 C.ar        1 Y8L       0.0527
     13 N7         19.2193   20.3967   25.1387 N.pl3       1 Y8L      -0.2529
     14 C4         18.3015   19.5037   24.7025 C.ar        1 Y8L       0.1821
     15 N5         17.0212   19.6357   25.1315 N.ar        1 Y8L      -0.2810
     16 N3         18.6046   18.4583   23.8894 N.ar        1 Y8L      -0.2768
     17 C2         17.6799   17.5298   23.5489 C.ar        1 Y8L      -0.0078
     18 C1         16.3691   17.6352   24.0466 C.ar        1 Y8L      -0.0412
     19 C6         16.0158   18.7697   24.8127 C.ar        1 Y8L       0.0192
     20 C15        14.7063   19.0483   25.2958 C.2         1 Y8L       0.0635
     21 S23        14.4718   20.0319   26.6838 S.3         1 Y8L       0.0011
     22 C24        12.7658   19.9253   26.7067 C.2         1 Y8L       0.2827
     23 O28        12.0603   20.4998   27.5672 O.2         1 Y8L      -0.3738
     24 N25        12.3724   19.1533   25.6623 N.am        1 Y8L      -0.1962
     25 C29        10.9773   18.8786   25.4218 C.3         1 Y8L       0.0552
     26 C26        13.4017   18.6886   24.8679 C.2         1 Y8L       0.0878
     27 C27        13.1153   17.9102   23.6317 C.3         1 Y8L       0.0050
     28 H1         26.3200   19.7177   24.3849 H           1 Y8L       0.0562
     29 H2         24.9869   18.5626   24.3835 H           1 Y8L       0.0562
     30 H3         25.1186   18.2402   21.9715 H           1 Y8L       0.0833
     31 H4         26.7239   17.9930   22.6745 H           1 Y8L       0.0833
     32 H5         26.7175   19.3348   20.6646 H           1 Y8L       0.2015
     33 H6         27.3953   20.1012   21.9671 H           1 Y8L       0.2015
     34 H7         24.7607   20.6241   20.7458 H           1 Y8L       0.0833
     35 H8         26.1731   21.6925   20.7859 H           1 Y8L       0.0833
     36 H9         24.4621   22.3498   22.5072 H           1 Y8L       0.0562
     37 H10        26.0064   21.9408   23.2168 H           1 Y8L       0.0562
     38 H11        23.5873   19.6937   25.8766 H           1 Y8L       0.0490
     39 H12        21.2951   19.6683   26.5643 H           1 Y8L       0.0507
     40 H13        22.4315   21.2765   22.1326 H           1 Y8L       0.0490
     41 H14        20.1468   21.2136   22.8224 H           1 Y8L       0.0507
     42 H15        18.9456   21.0279   25.8267 H           1 Y8L       0.2141
     43 H16        17.9535   16.7467   22.9566 H           1 Y8L       0.0819
     44 H17        15.7070   16.8796   23.8650 H           1 Y8L       0.0541
     45 H18        10.3142   19.2960   26.1826 H           1 Y8L       0.0582
     46 H19        10.8118   17.7994   25.3995 H           1 Y8L       0.0582
     47 H20        10.6754   19.3052   24.4639 H           1 Y8L       0.0582
     48 H21        13.9519   17.8635   22.9430 H           1 Y8L       0.0473
     49 H22        12.2932   18.3663   23.0781 H           1 Y8L       0.0473
     50 H23        12.8217   16.8956   23.9053 H           1 Y8L       0.0473
@<TRIPOS>BOND
     1     1     2   1
     2     1     6   1
     3     2     3   1
     4     3     4   1
     5     4     5   1
     6     5     6   1
     7     6     7   1
     8     7     8  ar
     9     7    10  ar
    10     8     9  ar
    11     9    12  ar
    12    10    11  ar
    13    11    12  ar
    14    12    13   1
    15    13    14   1
    16    14    15  ar
    17    14    16  ar
    18    15    19  ar
    19    16    17  ar
    20    17    18  ar
    21    18    19  ar
    22    19    20   1
    23    20    21   1
    24    20    26   2
    25    21    22   1
    26    22    23   2
    27    22    24  am
    28    24    25   1
    29    24    26   1
    30    26    27   1
    31     1    28   1
    32     1    29   1
    33     2    30   1
    34     2    31   1
    35     3    32   1
    36     3    33   1
    37     4    34   1
    38     4    35   1
    39     5    36   1
    40     5    37   1
    41     8    38   1
    42     9    39   1
    43    10    40   1
    44    11    41   1
    45    13    42   1
    46    17    43   1
    47    18    44   1
    48    25    45   1
    49    25    46   1
    50    25    47   1
    51    27    48   1
    52    27    49   1
    53    27    50   1
@<TRIPOS>SUBSTRUCTURE
     1  Y8L      1

