@<TRIPOS>MOLECULE
2xnb_ligand_020
    50    53
SMALL
GAST_HUCK
****
This file was generated by PARSER (from files_GN.cpp)

@<TRIPOS>ATOM
      1 C17        24.3735   21.7811   23.1324 C.3         1 Y8L       0.0648
      2 C18        25.8742   21.3991   23.1866 C.3         1 Y8L      -0.0139
      3 N19        26.2850   20.6894   21.9633 N.4         1 Y8L       0.2297
      4 C20        25.4652   19.4897   21.6896 C.3         1 Y8L      -0.0139
      5 C21        23.9535   19.8438   21.6443 C.3         1 Y8L       0.0648
      6 N16        23.5273   20.6368   22.7980 N.pl3       1 Y8L      -0.3045
      7 C12        22.2137   20.5724   23.2213 C.ar        1 Y8L       0.0297
      8 C13        21.5448   19.3310   23.3824 C.ar        1 Y8L      -0.0528
      9 C14        20.2113   19.2549   23.8190 C.ar        1 Y8L      -0.0489
     10 C11        21.4758   21.7427   23.5791 C.ar        1 Y8L      -0.0528
     11 C10        20.1401   21.6726   23.9949 C.ar        1 Y8L      -0.0489
     12 C9         19.4955   20.4259   24.1321 C.ar        1 Y8L       0.0527
     13 N7         18.2233   20.3518   24.6035 N.pl3       1 Y8L      -0.2529
     14 C4         17.9318   20.3291   25.9259 C.ar        1 Y8L       0.1821
     15 N5         16.6337   20.3741   26.3281 N.ar        1 Y8L      -0.2810
     16 N3         18.8945   20.2594   26.8840 N.ar        1 Y8L      -0.2768
     17 C2         18.5946   20.2327   28.1973 C.ar        1 Y8L      -0.0078
     18 C1         17.2579   20.3060   28.6099 C.ar        1 Y8L      -0.0412
     19 C6         16.2337   20.3804   27.6325 C.ar        1 Y8L       0.0192
     20 C15        14.8466   20.4869   27.9885 C.2         1 Y8L       0.0635
     21 S23        14.3349   20.5867   29.6295 S.3         1 Y8L       0.0011
     22 C24        12.6598   20.6915   29.3176 C.2         1 Y8L       0.2827
     23 O28        11.8113   20.7970   30.2353 O.2         1 Y8L      -0.3738
     24 N25        12.4780   20.6458   27.9724 N.am        1 Y8L      -0.1962
     25 C29        11.1483   20.6970   27.4110 C.3         1 Y8L       0.0552
     26 C26        13.6436   20.5596   27.2283 C.2         1 Y8L       0.0878
     27 C27        13.5680   20.5486   25.7375 C.3         1 Y8L       0.0050
     28 H1         24.2362   22.5986   22.4030 H           1 Y8L       0.0562
     29 H2         24.1307   22.1626   24.1307 H           1 Y8L       0.0562
     30 H3         26.0828   20.7657   24.0544 H           1 Y8L       0.0833
     31 H4         26.4915   22.2967   23.2674 H           1 Y8L       0.0833
     32 H5         27.2715   20.4210   22.0640 H           1 Y8L       0.2015
     33 H6         26.1875   21.3311   21.1709 H           1 Y8L       0.2015
     34 H7         25.6544   18.7266   22.4524 H           1 Y8L       0.0833
     35 H8         25.7745   19.0856   20.7229 H           1 Y8L       0.0833
     36 H9         23.4184   18.8952   21.5447 H           1 Y8L       0.0562
     37 H10        23.7546   20.4238   20.7287 H           1 Y8L       0.0562
     38 H11        22.0413   18.4461   23.2483 H           1 Y8L       0.0490
     39 H12        19.7703   18.3363   23.9322 H           1 Y8L       0.0507
     40 H13        21.8865   22.6732   23.4535 H           1 Y8L       0.0490
     41 H14        19.6461   22.5393   24.2316 H           1 Y8L       0.0507
     42 H15        17.4922   20.3274   23.9564 H           1 Y8L       0.2141
     43 H16        19.3528   20.1800   28.8784 H           1 Y8L       0.0819
     44 H17        17.0642   20.3095   29.6107 H           1 Y8L       0.0541
     45 H18        10.3604   20.7409   28.1702 H           1 Y8L       0.0582
     46 H19        10.9664   19.8084   26.8067 H           1 Y8L       0.0582
     47 H20        11.0412   21.5805   26.7825 H           1 Y8L       0.0582
     48 H21        14.5238   20.5533   25.2313 H           1 Y8L       0.0473
     49 H22        13.0330   21.4367   25.3997 H           1 Y8L       0.0473
     50 H23        13.0206   19.6624   25.4090 H           1 Y8L       0.0473
@<TRIPOS>BOND
     1     1     2   1
     2     1     6   1
     3     2     3   1
     4     3     4   1
     5     4     5   1
     6     5     6   1
     7     6     7   1
     8     7     8  ar
     9     7    10  ar
    10     8     9  ar
    11     9    12  ar
    12    10    11  ar
    13    11    12  ar
    14    12    13   1
    15    13    14   1
    16    14    15  ar
    17    14    16  ar
    18    15    19  ar
    19    16    17  ar
    20    17    18  ar
    21    18    19  ar
    22    19    20   1
    23    20    21   1
    24    20    26   2
    25    21    22   1
    26    22    23   2
    27    22    24  am
    28    24    25   1
    29    24    26   1
    30    26    27   1
    31     1    28   1
    32     1    29   1
    33     2    30   1
    34     2    31   1
    35     3    32   1
    36     3    33   1
    37     4    34   1
    38     4    35   1
    39     5    36   1
    40     5    37   1
    41     8    38   1
    42     9    39   1
    43    10    40   1
    44    11    41   1
    45    13    42   1
    46    17    43   1
    47    18    44   1
    48    25    45   1
    49    25    46   1
    50    25    47   1
    51    27    48   1
    52    27    49   1
    53    27    50   1
@<TRIPOS>SUBSTRUCTURE
     1  Y8L      1

