@<TRIPOS>MOLECULE
2xy9_ligand_051
    87    91
SMALL
GAST_HUCK
****
This file was generated by PARSER (from files_GN.cpp)

@<TRIPOS>ATOM
      1 CAQ        17.0012   -4.1809  -24.6037 C.ar        1 MOL      -0.0578
      2 CAK        18.0174   -5.0923  -24.9617 C.ar        1 MOL      -0.0685
      3 CAH        18.4016   -6.1010  -24.0604 C.ar        1 MOL      -0.0687
      4 CAL        17.7734   -6.1956  -22.8045 C.ar        1 MOL      -0.0685
      5 CAR        16.7727   -5.2762  -22.4425 C.ar        1 MOL      -0.0578
      6 CBP        16.3817   -4.2537  -23.3327 C.ar        1 MOL      -0.0130
      7 CBB        15.2389   -3.3552  -23.0069 C.3         1 MOL       0.1113
      8 OBJ        14.1072   -3.5330  -23.8696 O.3         1 MOL      -0.2506
      9 CBM        13.5742   -4.6548  -24.4311 C.2         1 MOL       0.3232
     10 OAB        14.1940   -5.8511  -24.1905 O.2         1 MOL      -0.3774
     11 NBI        12.6225   -4.4739  -25.3790 N.am        1 MOL      -0.2418
     12 CBX        12.1771   -5.3385  -26.4293 C.3         1 MOL       0.1176
     13 CBE        12.2625   -4.5561  -27.7745 C.3         1 MOL       0.0205
     14 CBQ        13.6257   -4.3622  -28.3442 C.ar        1 MOL      -0.0393
     15 CAS        13.9624   -4.9157  -29.6037 C.ar        1 MOL      -0.0602
     16 CAM        15.2439   -4.7255  -30.1590 C.ar        1 MOL      -0.0686
     17 CAI        16.2005   -3.9611  -29.4670 C.ar        1 MOL      -0.0687
     18 CAN        15.8805   -3.3936  -28.2206 C.ar        1 MOL      -0.0686
     19 CAT        14.6023   -3.6002  -27.6604 C.ar        1 MOL      -0.0602
     20 PBY        12.7013   -6.9324  -26.5213 P.3         1 MOL       0.0154
     21 OAG        14.1333   -6.9902  -26.3085 O.co2       1 MOL      -0.6174
     22 OAD        12.6219   -7.3964  -27.9021 O.co2       1 MOL      -0.6174
     23 N          13.6145  -10.0084  -27.0417 N.am        1 MOL      -0.2694
     24 CA         14.5836  -10.3666  -28.0587 C.3         1 MOL       0.1024
     25 C          14.3525   -9.8299  -29.4176 C.2         1 MOL       0.0619
     26 OXT        13.5265   -8.7713  -29.6183 O.co2       1 MOL      -0.5665
     27 O          15.2938  -10.0311  -30.3706 O.co2       1 MOL      -0.5665
     28 CB         14.9789  -11.8758  -28.0416 C.3         1 MOL       0.0108
     29 CG         13.9729  -12.8649  -28.5296 C.ar        1 MOL      -0.0499
     30 CD1        12.7997  -13.1213  -27.7826 C.ar        1 MOL      -0.0686
     31 CE1        11.8867  -14.1107  -28.1787 C.ar        1 MOL      -0.0398
     32 CZ         12.1442  -14.8873  -29.3188 C.ar        1 MOL       0.0805
     33 OH         11.2807  -15.8755  -29.6787 O.3         1 MOL      -0.3376
     34 CE2        13.3081  -14.6575  -30.0761 C.ar        1 MOL      -0.0398
     35 CD2        14.2081  -13.6468  -29.6870 C.ar        1 MOL      -0.0686
     36 CBF        12.0046   -8.0302  -25.4658 C.3         1 MOL       0.0375
     37 CBV        11.4947   -9.4074  -26.0193 C.3         1 MOL       0.0788
     38 CBN        12.2884  -10.0195  -27.0954 C.2         1 MOL       0.1848
     39 OAC        11.7189  -10.4524  -28.0885 O.2         1 MOL      -0.3964
     40 CBC        11.1714  -10.4065  -24.8493 C.3         1 MOL       0.0422
     41 CBS        12.2177  -11.3545  -24.4177 C.2         1 MOL       0.1411
     42 CBA        13.4317  -11.1168  -23.7888 C.2         1 MOL      -0.0269
     43 OBK        12.1099  -12.6947  -24.5760 O.3         1 MOL      -0.1670
     44 NBG        13.1835  -13.2778  -24.1084 N.2         1 MOL      -0.1519
     45 CBU        14.0430  -12.3591  -23.6300 C.2         1 MOL       0.0430
     46 CBT        15.3173  -12.6732  -23.0909 C.ar        1 MOL      -0.0150
     47 CAU        15.9290  -11.8585  -22.1088 C.ar        1 MOL      -0.0551
     48 CAO        17.1670  -12.2168  -21.5422 C.ar        1 MOL      -0.0621
     49 CAJ        17.8209  -13.3883  -21.9601 C.ar        1 MOL      -0.0626
     50 CAP        17.2462  -14.1945  -22.9568 C.ar        1 MOL      -0.0621
     51 CAV        16.0031  -13.8400  -23.5164 C.ar        1 MOL      -0.0551
     52 H1         16.7362   -3.4505  -25.2648 H           1 MOL       0.0557
     53 H2         18.4656   -5.0244  -25.8741 H           1 MOL       0.0599
     54 H3         19.1134   -6.7815  -24.3338 H           1 MOL       0.0559
     55 H4         18.0275   -6.9433  -22.1603 H           1 MOL       0.0599
     56 H5         16.3034   -5.3852  -21.5524 H           1 MOL       0.0557
     57 H6         15.5549   -2.3109  -23.1093 H           1 MOL       0.0776
     58 H7         14.8970   -3.4767  -21.9726 H           1 MOL       0.0776
     59 H8         12.2895   -3.5512  -25.4155 H           1 MOL       0.1888
     60 H9         11.1200   -5.4248  -26.2119 H           1 MOL       0.0787
     61 H10        11.8207   -3.5645  -27.6573 H           1 MOL       0.0465
     62 H11        11.6416   -5.0600  -28.5042 H           1 MOL       0.0465
     63 H12        13.2837   -5.4715  -30.1292 H           1 MOL       0.0557
     64 H13        15.4825   -5.1498  -31.0616 H           1 MOL       0.0599
     65 H14        17.1333   -3.8261  -29.8660 H           1 MOL       0.0559
     66 H15        16.5788   -2.8349  -27.7204 H           1 MOL       0.0599
     67 H16        14.3840   -3.1705  -26.7622 H           1 MOL       0.0557
     68 H17        13.9859   -9.6344  -26.2299 H           1 MOL       0.1876
     69 H18        15.4826   -9.8454  -27.7187 H           1 MOL       0.0747
     70 H19        15.2679  -12.1543  -27.0255 H           1 MOL       0.0446
     71 H20        15.8953  -11.9681  -28.6367 H           1 MOL       0.0446
     72 H21        12.6108  -12.5884  -26.9258 H           1 MOL       0.0530
     73 H22        11.0499  -14.2806  -27.6264 H           1 MOL       0.0525
     74 H23        11.7832  -16.7136  -29.5608 H           1 MOL       0.2458
     75 H24        13.5048  -15.2292  -30.9048 H           1 MOL       0.0525
     76 H25        15.0437  -13.4911  -30.2642 H           1 MOL       0.0530
     77 H26        11.1472   -7.5229  -25.0170 H           1 MOL       0.0495
     78 H27        12.7070   -8.2150  -24.6500 H           1 MOL       0.0495
     79 H28        10.5202   -9.1774  -26.4637 H           1 MOL       0.0581
     80 H29        10.3091  -11.0047  -25.1479 H           1 MOL       0.0513
     81 H30        10.8569   -9.8498  -23.9658 H           1 MOL       0.0513
     82 H31        13.8161  -10.2074  -23.5266 H           1 MOL       0.0289
     83 H32        15.4605  -11.0107  -21.7716 H           1 MOL       0.0616
     84 H33        17.5832  -11.6272  -20.8195 H           1 MOL       0.0615
     85 H34        18.7058  -13.6607  -21.5315 H           1 MOL       0.0610
     86 H35        17.7205  -15.0419  -23.2681 H           1 MOL       0.0615
     87 H36        15.6015  -14.4475  -24.2378 H           1 MOL       0.0616
@<TRIPOS>BOND
     1     1     2  ar
     2     6     1  ar
     3     2     3  ar
     4     4     3  ar
     5     5     4  ar
     6     6     5  ar
     7     7     6   1
     8     8     7   1
     9     9     8   1
    10     9    10   2
    11    11     9  am
    12    12    11   1
    13    12    13   1
    14    20    12   1
    15    13    14   1
    16    14    15  ar
    17    14    19  ar
    18    15    16  ar
    19    16    17  ar
    20    18    17  ar
    21    19    18  ar
    22    20    21  ar
    23    20    22  ar
    24    36    20   1
    25    23    24   1
    26    38    23  am
    27    24    25   1
    28    24    28   1
    29    25    26  ar
    30    25    27  ar
    31    28    29   1
    32    29    30  ar
    33    29    35  ar
    34    30    31  ar
    35    31    32  ar
    36    32    33   1
    37    34    32  ar
    38    35    34  ar
    39    37    36   1
    40    37    38   1
    41    37    40   1
    42    38    39   2
    43    40    41   1
    44    41    42   2
    45    41    43   1
    46    42    45   1
    47    43    44   1
    48    44    45   2
    49    45    46   1
    50    46    47  ar
    51    46    51  ar
    52    47    48  ar
    53    48    49  ar
    54    49    50  ar
    55    50    51  ar
    56     1    52   1
    57     2    53   1
    58     3    54   1
    59     4    55   1
    60     5    56   1
    61     7    57   1
    62     7    58   1
    63    11    59   1
    64    12    60   1
    65    13    61   1
    66    13    62   1
    67    15    63   1
    68    16    64   1
    69    17    65   1
    70    18    66   1
    71    19    67   1
    72    23    68   1
    73    24    69   1
    74    28    70   1
    75    28    71   1
    76    30    72   1
    77    31    73   1
    78    33    74   1
    79    34    75   1
    80    35    76   1
    81    36    77   1
    82    36    78   1
    83    37    79   1
    84    40    80   1
    85    40    81   1
    86    42    82   1
    87    47    83   1
    88    48    84   1
    89    49    85   1
    90    50    86   1
    91    51    87   1
@<TRIPOS>SUBSTRUCTURE
     1  MOL      1

