@<TRIPOS>MOLECULE
2xy9_ligand_086
    87    91
SMALL
GAST_HUCK
****
This file was generated by PARSER (from files_GN.cpp)

@<TRIPOS>ATOM
      1 CAQ        19.4702   -6.4945  -27.2650 C.ar        1 MOL      -0.0578
      2 CAK        18.9611   -5.3746  -26.5777 C.ar        1 MOL      -0.0685
      3 CAH        17.6974   -5.4347  -25.9643 C.ar        1 MOL      -0.0687
      4 CAL        16.9373   -6.6142  -26.0416 C.ar        1 MOL      -0.0685
      5 CAR        17.4441   -7.7312  -26.7318 C.ar        1 MOL      -0.0578
      6 CBP        18.7231   -7.6926  -27.3488 C.ar        1 MOL      -0.0130
      7 CBB        19.2700   -8.8745  -28.0775 C.3         1 MOL       0.1113
      8 OBJ        18.8547  -10.0881  -27.4272 O.3         1 MOL      -0.2506
      9 CBM        17.8019  -10.8897  -27.7107 C.2         1 MOL       0.3232
     10 OAB        17.0082  -10.6687  -28.7974 O.2         1 MOL      -0.3774
     11 NBI        17.4667  -11.7661  -26.7404 N.am        1 MOL      -0.2418
     12 CBX        16.2501  -12.5185  -26.5686 C.3         1 MOL       0.1176
     13 CBE        16.2853  -13.1507  -25.1239 C.3         1 MOL       0.0205
     14 CBQ        16.1121  -14.6306  -25.0702 C.ar        1 MOL      -0.0393
     15 CAS        15.0283  -15.2216  -24.3750 C.ar        1 MOL      -0.0602
     16 CAM        14.9956  -16.6140  -24.1548 C.ar        1 MOL      -0.0686
     17 CAI        16.0307  -17.4341  -24.6366 C.ar        1 MOL      -0.0687
     18 CAN        17.0925  -16.8651  -25.3611 C.ar        1 MOL      -0.0686
     19 CAT        17.1289  -15.4739  -25.5829 C.ar        1 MOL      -0.0602
     20 PBY        14.8889  -11.5649  -26.8694 P.3         1 MOL       0.0154
     21 OAG        15.0393  -10.3246  -26.1529 O.co2       1 MOL      -0.6174
     22 OAD        13.7318  -12.1840  -26.2720 O.co2       1 MOL      -0.6174
     23 N          13.0969   -8.7164  -26.9811 N.am        1 MOL      -0.2694
     24 CA         12.1993   -8.0903  -26.0607 C.3         1 MOL       0.1024
     25 C          12.3313   -6.6259  -26.2296 C.2         1 MOL       0.0619
     26 OXT        11.2753   -5.8849  -26.6286 O.co2       1 MOL      -0.5665
     27 O          13.4690   -5.9727  -25.9002 O.co2       1 MOL      -0.5665
     28 CB         12.5147   -8.4929  -24.5920 C.3         1 MOL       0.0108
     29 CG         12.2589   -9.9208  -24.2414 C.ar        1 MOL      -0.0499
     30 CD1        13.3091  -10.7648  -23.8055 C.ar        1 MOL      -0.0686
     31 CE1        13.0546  -12.0855  -23.3922 C.ar        1 MOL      -0.0398
     32 CZ         11.7374  -12.5858  -23.3850 C.ar        1 MOL       0.0805
     33 OH         11.4873  -13.8541  -22.9629 O.3         1 MOL      -0.3376
     34 CE2        10.6811  -11.7531  -23.8027 C.ar        1 MOL      -0.0398
     35 CD2        10.9391  -10.4385  -24.2284 C.ar        1 MOL      -0.0686
     36 CBF        14.4603  -11.2939  -28.4702 C.3         1 MOL       0.0375
     37 CBV        13.8704   -9.9164  -28.9439 C.3         1 MOL       0.0788
     38 CBN        12.8100   -9.4353  -28.0567 C.2         1 MOL       0.1848
     39 OAC        11.6447   -9.7107  -28.3438 O.2         1 MOL      -0.3964
     40 CBC        14.9320   -8.8142  -29.2814 C.3         1 MOL       0.0422
     41 CBS        15.8838   -9.1488  -30.3615 C.2         1 MOL       0.1411
     42 CBA        17.0559   -8.4684  -30.6506 C.2         1 MOL      -0.0269
     43 OBK        15.8454  -10.2299  -31.1719 O.3         1 MOL      -0.1670
     44 NBG        16.9378  -10.2784  -31.8860 N.2         1 MOL      -0.1519
     45 CBU        17.7415   -9.2382  -31.5862 C.2         1 MOL       0.0430
     46 CBT        19.0840   -9.0819  -32.0362 C.ar        1 MOL      -0.0150
     47 CAU        19.8176   -7.8877  -31.7961 C.ar        1 MOL      -0.0551
     48 CAO        21.1742   -7.7869  -32.1454 C.ar        1 MOL      -0.0621
     49 CAJ        21.8293   -8.8700  -32.7553 C.ar        1 MOL      -0.0626
     50 CAP        21.1165  -10.0524  -33.0316 C.ar        1 MOL      -0.0621
     51 CAV        19.7618  -10.1549  -32.6733 C.ar        1 MOL      -0.0551
     52 H1         20.3927   -6.4348  -27.6965 H           1 MOL       0.0557
     53 H2         19.5123   -4.5163  -26.5288 H           1 MOL       0.0599
     54 H3         17.3317   -4.6165  -25.4659 H           1 MOL       0.0559
     55 H4         16.0195   -6.6611  -25.5967 H           1 MOL       0.0599
     56 H5         16.8774   -8.5815  -26.7557 H           1 MOL       0.0557
     57 H6         20.3618   -8.8544  -28.0935 H           1 MOL       0.0776
     58 H7         18.9240   -8.8474  -29.1120 H           1 MOL       0.0776
     59 H8         18.1263  -11.8663  -26.0292 H           1 MOL       0.1888
     60 H9         16.2548  -13.3184  -27.3066 H           1 MOL       0.0787
     61 H10        15.5654  -12.6550  -24.4629 H           1 MOL       0.0465
     62 H11        17.2491  -12.9647  -24.6462 H           1 MOL       0.0465
     63 H12        14.2751  -14.6366  -23.9935 H           1 MOL       0.0557
     64 H13        14.2239  -17.0261  -23.6257 H           1 MOL       0.0599
     65 H14        16.0174  -18.4380  -24.4554 H           1 MOL       0.0559
     66 H15        17.8561  -17.4553  -25.6985 H           1 MOL       0.0599
     67 H16        17.9318  -15.0742  -26.0834 H           1 MOL       0.0557
     68 H17        14.0385   -8.5752  -26.7949 H           1 MOL       0.1876
     69 H18        11.1653   -8.3649  -26.2828 H           1 MOL       0.0747
     70 H19        11.8863   -7.8884  -23.9326 H           1 MOL       0.0446
     71 H20        13.5524   -8.2214  -24.3702 H           1 MOL       0.0446
     72 H21        14.2724  -10.4214  -23.7795 H           1 MOL       0.0530
     73 H22        13.8320  -12.6875  -23.1068 H           1 MOL       0.0525
     74 H23        10.9166  -14.2538  -23.6503 H           1 MOL       0.2458
     75 H24         9.7201  -12.1033  -23.7782 H           1 MOL       0.0525
     76 H25        10.1485   -9.8497  -24.5044 H           1 MOL       0.0530
     77 H26        13.7336  -12.0707  -28.7406 H           1 MOL       0.0495
     78 H27        15.3336  -11.4952  -29.0711 H           1 MOL       0.0495
     79 H28        13.3922  -10.1162  -29.9128 H           1 MOL       0.0581
     80 H29        15.5114   -8.5986  -28.3846 H           1 MOL       0.0513
     81 H30        14.4228   -7.8922  -29.5722 H           1 MOL       0.0513
     82 H31        17.3904   -7.6354  -30.1654 H           1 MOL       0.0289
     83 H32        19.3717   -7.0814  -31.3547 H           1 MOL       0.0616
     84 H33        21.6922   -6.9274  -31.9440 H           1 MOL       0.0615
     85 H34        22.8219   -8.8031  -32.9908 H           1 MOL       0.0610
     86 H35        21.5924  -10.8412  -33.4729 H           1 MOL       0.0615
     87 H36        19.2762  -11.0362  -32.8689 H           1 MOL       0.0616
@<TRIPOS>BOND
     1     1     2  ar
     2     6     1  ar
     3     2     3  ar
     4     4     3  ar
     5     5     4  ar
     6     6     5  ar
     7     7     6   1
     8     8     7   1
     9     9     8   1
    10     9    10   2
    11    11     9  am
    12    12    11   1
    13    12    13   1
    14    20    12   1
    15    13    14   1
    16    14    15  ar
    17    14    19  ar
    18    15    16  ar
    19    16    17  ar
    20    18    17  ar
    21    19    18  ar
    22    20    21  ar
    23    20    22  ar
    24    36    20   1
    25    23    24   1
    26    38    23  am
    27    24    25   1
    28    24    28   1
    29    25    26  ar
    30    25    27  ar
    31    28    29   1
    32    29    30  ar
    33    29    35  ar
    34    30    31  ar
    35    31    32  ar
    36    32    33   1
    37    34    32  ar
    38    35    34  ar
    39    37    36   1
    40    37    38   1
    41    37    40   1
    42    38    39   2
    43    40    41   1
    44    41    42   2
    45    41    43   1
    46    42    45   1
    47    43    44   1
    48    44    45   2
    49    45    46   1
    50    46    47  ar
    51    46    51  ar
    52    47    48  ar
    53    48    49  ar
    54    49    50  ar
    55    50    51  ar
    56     1    52   1
    57     2    53   1
    58     3    54   1
    59     4    55   1
    60     5    56   1
    61     7    57   1
    62     7    58   1
    63    11    59   1
    64    12    60   1
    65    13    61   1
    66    13    62   1
    67    15    63   1
    68    16    64   1
    69    17    65   1
    70    18    66   1
    71    19    67   1
    72    23    68   1
    73    24    69   1
    74    28    70   1
    75    28    71   1
    76    30    72   1
    77    31    73   1
    78    33    74   1
    79    34    75   1
    80    35    76   1
    81    36    77   1
    82    36    78   1
    83    37    79   1
    84    40    80   1
    85    40    81   1
    86    42    82   1
    87    47    83   1
    88    48    84   1
    89    49    85   1
    90    50    86   1
    91    51    87   1
@<TRIPOS>SUBSTRUCTURE
     1  MOL      1

