@<TRIPOS>MOLECULE
2xy9_ligand_035
    87    91
SMALL
GAST_HUCK
****
This file was generated by PARSER (from files_GN.cpp)

@<TRIPOS>ATOM
      1 CAQ        15.9953    2.6995  -16.0960 C.ar        1 MOL      -0.0578
      2 CAK        15.0385    3.6932  -16.3721 C.ar        1 MOL      -0.0685
      3 CAH        15.0451    4.3587  -17.6127 C.ar        1 MOL      -0.0687
      4 CAL        16.0128    4.0272  -18.5754 C.ar        1 MOL      -0.0685
      5 CAR        16.9694    3.0363  -18.2995 C.ar        1 MOL      -0.0578
      6 CBP        16.9676    2.3450  -17.0623 C.ar        1 MOL      -0.0130
      7 CBB        17.9690    1.2719  -16.8156 C.3         1 MOL       0.1113
      8 OBJ        17.6660    0.1100  -17.6062 O.3         1 MOL      -0.2506
      9 CBM        16.6070   -0.7255  -17.4431 C.2         1 MOL       0.3232
     10 OAB        15.7698   -0.5830  -16.3845 O.2         1 MOL      -0.3774
     11 NBI        16.4343   -1.6727  -18.3919 N.am        1 MOL      -0.2418
     12 CBX        15.3042   -2.5413  -18.5807 C.3         1 MOL       0.1176
     13 CBE        14.0054   -1.7078  -18.8438 C.3         1 MOL       0.0205
     14 CBQ        13.5253   -0.8218  -17.7470 C.ar        1 MOL      -0.0393
     15 CAS        13.4668    0.5859  -17.9050 C.ar        1 MOL      -0.0602
     16 CAM        12.9855    1.4032  -16.8633 C.ar        1 MOL      -0.0686
     17 CAI        12.5425    0.8290  -15.6584 C.ar        1 MOL      -0.0687
     18 CAN        12.5770   -0.5683  -15.4970 C.ar        1 MOL      -0.0686
     19 CAT        13.0620   -1.3863  -16.5349 C.ar        1 MOL      -0.0602
     20 PBY        15.6887   -3.6102  -19.8263 P.3         1 MOL       0.0154
     21 OAG        16.5409   -4.5900  -19.1990 O.co2       1 MOL      -0.6174
     22 OAD        16.5086   -2.9999  -20.8463 O.co2       1 MOL      -0.6174
     23 N          12.9244   -5.1156  -23.3559 N.am        1 MOL      -0.2694
     24 CA         13.0652   -5.4475  -24.7500 C.3         1 MOL       0.1024
     25 C          11.8243   -5.0158  -25.4410 C.2         1 MOL       0.0619
     26 OXT        11.1253   -5.8212  -26.2789 O.co2       1 MOL      -0.5665
     27 O          11.3802   -3.7469  -25.2760 O.co2       1 MOL      -0.5665
     28 CB         13.3919   -6.9692  -24.8518 C.3         1 MOL       0.0108
     29 CG         13.7639   -7.4755  -26.2073 C.ar        1 MOL      -0.0499
     30 CD1        14.8827   -6.9495  -26.8949 C.ar        1 MOL      -0.0686
     31 CE1        15.2618   -7.4578  -28.1512 C.ar        1 MOL      -0.0398
     32 CZ         14.5185   -8.4917  -28.7538 C.ar        1 MOL       0.0805
     33 OH         14.8554   -8.9578  -29.9877 O.3         1 MOL      -0.3376
     34 CE2        13.4085   -9.0318  -28.0758 C.ar        1 MOL      -0.0398
     35 CD2        13.0374   -8.5302  -26.8150 C.ar        1 MOL      -0.0686
     36 CBF        14.5159   -4.5778  -20.5248 C.3         1 MOL       0.0375
     37 CBV        13.2936   -3.8869  -21.2485 C.3         1 MOL       0.0788
     38 CBN        13.4005   -4.0515  -22.7126 C.2         1 MOL       0.1848
     39 OAC        14.0160   -3.1916  -23.3395 O.2         1 MOL      -0.3964
     40 CBC        11.8634   -4.1894  -20.6511 C.3         1 MOL       0.0422
     41 CBS        11.8057   -4.5198  -19.2118 C.2         1 MOL       0.1411
     42 CBA        11.3558   -3.7659  -18.1365 C.2         1 MOL      -0.0269
     43 OBK        12.2187   -5.7040  -18.7078 O.3         1 MOL      -0.1670
     44 NBG        12.0895   -5.7025  -17.4088 N.2         1 MOL      -0.1519
     45 CBU        11.5636   -4.5337  -16.9908 C.2         1 MOL       0.0430
     46 CBT        11.3070   -4.2254  -15.6205 C.ar        1 MOL      -0.0150
     47 CAU        10.5930   -3.0613  -15.2402 C.ar        1 MOL      -0.0551
     48 CAO        10.3373   -2.7810  -13.8864 C.ar        1 MOL      -0.0621
     49 CAJ        10.8090   -3.6483  -12.8840 C.ar        1 MOL      -0.0626
     50 CAP        11.5252   -4.8030  -13.2403 C.ar        1 MOL      -0.0621
     51 CAV        11.7686   -5.0908  -14.5947 C.ar        1 MOL      -0.0551
     52 H1         15.9687    2.2212  -15.1899 H           1 MOL       0.0557
     53 H2         14.3274    3.9301  -15.6748 H           1 MOL       0.0599
     54 H3         14.3432    5.0704  -17.8177 H           1 MOL       0.0559
     55 H4         16.0223    4.5107  -19.4789 H           1 MOL       0.0599
     56 H5         17.6676    2.8106  -19.0128 H           1 MOL       0.0557
     57 H6         18.0231    0.9799  -15.7601 H           1 MOL       0.0776
     58 H7         18.9478    1.6383  -17.1138 H           1 MOL       0.0776
     59 H8         17.1212   -1.7063  -19.0787 H           1 MOL       0.1888
     60 H9         15.1635   -3.1376  -17.6750 H           1 MOL       0.0787
     61 H10        13.1733   -2.3943  -19.0169 H           1 MOL       0.0465
     62 H11        14.1438   -1.1300  -19.7702 H           1 MOL       0.0465
     63 H12        13.7756    1.0208  -18.7789 H           1 MOL       0.0557
     64 H13        12.9492    2.4167  -16.9875 H           1 MOL       0.0599
     65 H14        12.1855    1.4250  -14.9036 H           1 MOL       0.0559
     66 H15        12.2469   -0.9807  -14.6224 H           1 MOL       0.0599
     67 H16        13.0764   -2.3981  -16.3900 H           1 MOL       0.0557
     68 H17        12.4482   -5.7649  -22.8257 H           1 MOL       0.1876
     69 H18        13.8957   -4.8962  -25.2008 H           1 MOL       0.0747
     70 H19        12.5281   -7.5204  -24.4629 H           1 MOL       0.0446
     71 H20        14.2259   -7.1867  -24.1778 H           1 MOL       0.0446
     72 H21        15.4422   -6.2070  -26.4761 H           1 MOL       0.0530
     73 H22        16.0744   -7.0695  -28.6340 H           1 MOL       0.0525
     74 H23        15.8153   -9.1575  -29.9504 H           1 MOL       0.2458
     75 H24        12.8668   -9.7868  -28.5022 H           1 MOL       0.0525
     76 H25        12.2305   -8.9425  -26.3428 H           1 MOL       0.0530
     77 H26        14.1808   -5.2127  -19.7107 H           1 MOL       0.0495
     78 H27        15.0105   -5.2591  -21.2305 H           1 MOL       0.0495
     79 H28        13.3934   -2.8054  -21.0973 H           1 MOL       0.0581
     80 H29        11.3908   -5.0184  -21.1640 H           1 MOL       0.0513
     81 H30        11.2328   -3.3104  -20.8181 H           1 MOL       0.0513
     82 H31        10.9762   -2.8190  -18.1866 H           1 MOL       0.0289
     83 H32        10.2393   -2.4122  -15.9422 H           1 MOL       0.0616
     84 H33         9.8123   -1.9449  -13.6270 H           1 MOL       0.0615
     85 H34        10.6276   -3.4412  -11.8980 H           1 MOL       0.0610
     86 H35        11.8613   -5.4375  -12.5160 H           1 MOL       0.0615
     87 H36        12.2845   -5.9420  -14.8210 H           1 MOL       0.0616
@<TRIPOS>BOND
     1     1     2  ar
     2     6     1  ar
     3     2     3  ar
     4     4     3  ar
     5     5     4  ar
     6     6     5  ar
     7     7     6   1
     8     8     7   1
     9     9     8   1
    10     9    10   2
    11    11     9  am
    12    12    11   1
    13    12    13   1
    14    20    12   1
    15    13    14   1
    16    14    15  ar
    17    14    19  ar
    18    15    16  ar
    19    16    17  ar
    20    18    17  ar
    21    19    18  ar
    22    20    21  ar
    23    20    22  ar
    24    36    20   1
    25    23    24   1
    26    38    23  am
    27    24    25   1
    28    24    28   1
    29    25    26  ar
    30    25    27  ar
    31    28    29   1
    32    29    30  ar
    33    29    35  ar
    34    30    31  ar
    35    31    32  ar
    36    32    33   1
    37    34    32  ar
    38    35    34  ar
    39    37    36   1
    40    37    38   1
    41    37    40   1
    42    38    39   2
    43    40    41   1
    44    41    42   2
    45    41    43   1
    46    42    45   1
    47    43    44   1
    48    44    45   2
    49    45    46   1
    50    46    47  ar
    51    46    51  ar
    52    47    48  ar
    53    48    49  ar
    54    49    50  ar
    55    50    51  ar
    56     1    52   1
    57     2    53   1
    58     3    54   1
    59     4    55   1
    60     5    56   1
    61     7    57   1
    62     7    58   1
    63    11    59   1
    64    12    60   1
    65    13    61   1
    66    13    62   1
    67    15    63   1
    68    16    64   1
    69    17    65   1
    70    18    66   1
    71    19    67   1
    72    23    68   1
    73    24    69   1
    74    28    70   1
    75    28    71   1
    76    30    72   1
    77    31    73   1
    78    33    74   1
    79    34    75   1
    80    35    76   1
    81    36    77   1
    82    36    78   1
    83    37    79   1
    84    40    80   1
    85    40    81   1
    86    42    82   1
    87    47    83   1
    88    48    84   1
    89    49    85   1
    90    50    86   1
    91    51    87   1
@<TRIPOS>SUBSTRUCTURE
     1  MOL      1

