@<TRIPOS>MOLECULE
2xy9_ligand_080
    87    91
SMALL
GAST_HUCK
****
This file was generated by PARSER (from files_GN.cpp)

@<TRIPOS>ATOM
      1 CAQ        13.6899    3.1328  -16.7829 C.ar        1 MOL      -0.0578
      2 CAK        12.9378    3.3736  -15.6164 C.ar        1 MOL      -0.0685
      3 CAH        12.0661    2.3876  -15.1322 C.ar        1 MOL      -0.0687
      4 CAL        11.9483    1.1603  -15.8123 C.ar        1 MOL      -0.0685
      5 CAR        12.6973    0.9215  -16.9802 C.ar        1 MOL      -0.0578
      6 CBP        13.5806    1.9061  -17.4850 C.ar        1 MOL      -0.0130
      7 CBB        14.4029    1.7072  -18.7065 C.3         1 MOL       0.1113
      8 OBJ        14.1909    0.4440  -19.3572 O.3         1 MOL      -0.2506
      9 CBM        15.1081   -0.5365  -19.5597 C.2         1 MOL       0.3232
     10 OAB        16.3719   -0.3950  -19.0980 O.2         1 MOL      -0.3774
     11 NBI        14.7118   -1.6802  -20.1689 N.am        1 MOL      -0.2418
     12 CBX        15.5305   -2.8590  -20.2939 C.3         1 MOL       0.1176
     13 CBE        15.7865   -3.5197  -18.8949 C.3         1 MOL       0.0205
     14 CBQ        14.6561   -3.4471  -17.9206 C.ar        1 MOL      -0.0393
     15 CAS        13.5083   -4.2600  -18.0754 C.ar        1 MOL      -0.0602
     16 CAM        12.4585   -4.2048  -17.1406 C.ar        1 MOL      -0.0686
     17 CAI        12.5391   -3.3303  -16.0426 C.ar        1 MOL      -0.0687
     18 CAN        13.6689   -2.5073  -15.8802 C.ar        1 MOL      -0.0686
     19 CAT        14.7167   -2.5633  -16.8138 C.ar        1 MOL      -0.0602
     20 PBY        15.0047   -3.8874  -21.5174 P.3         1 MOL       0.0154
     21 OAG        13.6948   -3.4800  -22.0068 O.co2       1 MOL      -0.6174
     22 OAD        14.8301   -5.2709  -21.1017 O.co2       1 MOL      -0.6174
     23 N          14.1002   -6.2334  -24.6135 N.am        1 MOL      -0.2694
     24 CA         13.0720   -6.5940  -25.5537 C.3         1 MOL       0.1024
     25 C          11.9995   -5.5736  -25.7145 C.2         1 MOL       0.0619
     26 OXT        10.9244   -5.8775  -26.4796 O.co2       1 MOL      -0.5665
     27 O          12.0458   -4.3591  -25.1150 O.co2       1 MOL      -0.5665
     28 CB         12.4670   -7.9961  -25.1694 C.3         1 MOL       0.0108
     29 CG         12.9353   -9.1517  -25.9903 C.ar        1 MOL      -0.0499
     30 CD1        14.2955   -9.5413  -25.9710 C.ar        1 MOL      -0.0686
     31 CE1        14.7270  -10.6895  -26.6646 C.ar        1 MOL      -0.0398
     32 CZ         13.8009  -11.4758  -27.3778 C.ar        1 MOL       0.0805
     33 OH         14.1929  -12.6143  -28.0109 O.3         1 MOL      -0.3376
     34 CE2        12.4470  -11.0948  -27.4125 C.ar        1 MOL      -0.0398
     35 CD2        12.0215   -9.9376  -26.7366 C.ar        1 MOL      -0.0686
     36 CBF        16.0804   -3.8984  -22.7915 C.3         1 MOL       0.0375
     37 CBV        16.0746   -5.0996  -23.7968 C.3         1 MOL       0.0788
     38 CBN        14.8685   -5.1529  -24.6324 C.2         1 MOL       0.1848
     39 OAC        14.6691   -4.2417  -25.4313 O.2         1 MOL      -0.3964
     40 CBC        17.3879   -5.0678  -24.6553 C.3         1 MOL       0.0422
     41 CBS        17.4068   -6.0327  -25.7694 C.2         1 MOL       0.1411
     42 CBA        17.4027   -5.7224  -27.1198 C.2         1 MOL      -0.0269
     43 OBK        17.3500   -7.3815  -25.6709 O.3         1 MOL      -0.1670
     44 NBG        17.3030   -7.8953  -26.8724 N.2         1 MOL      -0.1519
     45 CBU        17.3216   -6.9254  -27.8125 C.2         1 MOL       0.0430
     46 CBT        17.2126   -7.1295  -29.2184 C.ar        1 MOL      -0.0150
     47 CAU        17.1740   -6.0441  -30.1302 C.ar        1 MOL      -0.0551
     48 CAO        16.9903   -6.2592  -31.5091 C.ar        1 MOL      -0.0621
     49 CAJ        16.8518   -7.5643  -32.0063 C.ar        1 MOL      -0.0626
     50 CAP        16.9041   -8.6564  -31.1260 C.ar        1 MOL      -0.0621
     51 CAV        17.0860   -8.4404  -29.7457 C.ar        1 MOL      -0.0551
     52 H1         14.3260    3.8671  -17.1225 H           1 MOL       0.0557
     53 H2         13.0290    4.2622  -15.1289 H           1 MOL       0.0599
     54 H3         11.5193    2.5583  -14.2886 H           1 MOL       0.0559
     55 H4         11.3109    0.4385  -15.4555 H           1 MOL       0.0599
     56 H5         12.5884    0.0258  -17.4534 H           1 MOL       0.0557
     57 H6         15.4507    1.8334  -18.4327 H           1 MOL       0.0776
     58 H7         14.1559    2.4904  -19.4295 H           1 MOL       0.0776
     59 H8         13.7751   -1.7386  -20.4236 H           1 MOL       0.1888
     60 H9         16.5093   -2.5112  -20.6237 H           1 MOL       0.0787
     61 H10        16.6598   -3.0229  -18.4525 H           1 MOL       0.0465
     62 H11        16.0992   -4.5593  -19.0084 H           1 MOL       0.0465
     63 H12        13.4303   -4.9061  -18.8606 H           1 MOL       0.0557
     64 H13        11.6391   -4.8027  -17.2548 H           1 MOL       0.0599
     65 H14        11.7759   -3.2921  -15.3574 H           1 MOL       0.0559
     66 H15        13.7267   -1.8715  -15.0823 H           1 MOL       0.0599
     67 H16        15.5244   -1.9565  -16.6774 H           1 MOL       0.0557
     68 H17        14.3190   -6.8946  -23.9464 H           1 MOL       0.1876
     69 H18        13.5446   -6.6702  -26.5435 H           1 MOL       0.0747
     70 H19        11.3732   -7.9635  -25.2085 H           1 MOL       0.0446
     71 H20        12.6987   -8.2308  -24.1302 H           1 MOL       0.0446
     72 H21        14.9785   -9.0066  -25.4346 H           1 MOL       0.0530
     73 H22        15.7129  -10.9667  -26.6352 H           1 MOL       0.0525
     74 H23        15.0437  -12.3864  -28.4539 H           1 MOL       0.2458
     75 H24        11.7708  -11.6652  -27.9220 H           1 MOL       0.0525
     76 H25        11.0313   -9.6841  -26.7782 H           1 MOL       0.0530
     77 H26        17.0731   -3.8902  -22.3344 H           1 MOL       0.0495
     78 H27        15.9636   -2.9649  -23.3410 H           1 MOL       0.0495
     79 H28        16.1387   -6.0183  -23.1920 H           1 MOL       0.0581
     80 H29        18.2481   -5.2862  -24.0174 H           1 MOL       0.0513
     81 H30        17.5165   -4.0624  -25.0563 H           1 MOL       0.0513
     82 H31        17.4125   -4.7761  -27.5079 H           1 MOL       0.0289
     83 H32        17.2590   -5.0807  -29.8074 H           1 MOL       0.0616
     84 H33        16.9435   -5.4597  -32.1491 H           1 MOL       0.0615
     85 H34        16.7026   -7.7175  -33.0039 H           1 MOL       0.0610
     86 H35        16.7917   -9.6050  -31.4844 H           1 MOL       0.0615
     87 H36        17.1045   -9.2589  -29.1273 H           1 MOL       0.0616
@<TRIPOS>BOND
     1     1     2  ar
     2     6     1  ar
     3     2     3  ar
     4     4     3  ar
     5     5     4  ar
     6     6     5  ar
     7     7     6   1
     8     8     7   1
     9     9     8   1
    10     9    10   2
    11    11     9  am
    12    12    11   1
    13    12    13   1
    14    20    12   1
    15    13    14   1
    16    14    15  ar
    17    14    19  ar
    18    15    16  ar
    19    16    17  ar
    20    18    17  ar
    21    19    18  ar
    22    20    21  ar
    23    20    22  ar
    24    36    20   1
    25    23    24   1
    26    38    23  am
    27    24    25   1
    28    24    28   1
    29    25    26  ar
    30    25    27  ar
    31    28    29   1
    32    29    30  ar
    33    29    35  ar
    34    30    31  ar
    35    31    32  ar
    36    32    33   1
    37    34    32  ar
    38    35    34  ar
    39    37    36   1
    40    37    38   1
    41    37    40   1
    42    38    39   2
    43    40    41   1
    44    41    42   2
    45    41    43   1
    46    42    45   1
    47    43    44   1
    48    44    45   2
    49    45    46   1
    50    46    47  ar
    51    46    51  ar
    52    47    48  ar
    53    48    49  ar
    54    49    50  ar
    55    50    51  ar
    56     1    52   1
    57     2    53   1
    58     3    54   1
    59     4    55   1
    60     5    56   1
    61     7    57   1
    62     7    58   1
    63    11    59   1
    64    12    60   1
    65    13    61   1
    66    13    62   1
    67    15    63   1
    68    16    64   1
    69    17    65   1
    70    18    66   1
    71    19    67   1
    72    23    68   1
    73    24    69   1
    74    28    70   1
    75    28    71   1
    76    30    72   1
    77    31    73   1
    78    33    74   1
    79    34    75   1
    80    35    76   1
    81    36    77   1
    82    36    78   1
    83    37    79   1
    84    40    80   1
    85    40    81   1
    86    42    82   1
    87    47    83   1
    88    48    84   1
    89    49    85   1
    90    50    86   1
    91    51    87   1
@<TRIPOS>SUBSTRUCTURE
     1  MOL      1

