@<TRIPOS>MOLECULE
2xy9_ligand_078
    87    91
SMALL
GAST_HUCK
****
This file was generated by PARSER (from files_GN.cpp)

@<TRIPOS>ATOM
      1 CAQ        17.5406  -16.3783  -24.8865 C.ar        1 MOL      -0.0578
      2 CAK        17.2763  -17.6671  -25.3888 C.ar        1 MOL      -0.0685
      3 CAH        16.0470  -18.2884  -25.1257 C.ar        1 MOL      -0.0687
      4 CAL        15.0836  -17.6359  -24.3337 C.ar        1 MOL      -0.0685
      5 CAR        15.3396  -16.3435  -23.8397 C.ar        1 MOL      -0.0578
      6 CBP        16.5667  -15.6990  -24.1124 C.ar        1 MOL      -0.0130
      7 CBB        16.7595  -14.2790  -23.7111 C.3         1 MOL       0.1113
      8 OBJ        16.0545  -13.3212  -24.5251 O.3         1 MOL      -0.2506
      9 CBM        15.3724  -13.4496  -25.6945 C.2         1 MOL       0.3232
     10 OAB        15.2772  -14.6269  -26.3535 O.2         1 MOL      -0.3774
     11 NBI        14.7926  -12.3260  -26.1836 N.am        1 MOL      -0.2418
     12 CBX        13.9428  -12.2592  -27.3383 C.3         1 MOL       0.1176
     13 CBE        12.5057  -12.8000  -27.0155 C.3         1 MOL       0.0205
     14 CBQ        11.9489  -12.4620  -25.6706 C.ar        1 MOL      -0.0393
     15 CAS        11.4987  -11.1519  -25.3759 C.ar        1 MOL      -0.0602
     16 CAM        10.9441  -10.8470  -24.1187 C.ar        1 MOL      -0.0686
     17 CAI        10.8355  -11.8432  -23.1340 C.ar        1 MOL      -0.0687
     18 CAN        11.2853  -13.1493  -23.4051 C.ar        1 MOL      -0.0686
     19 CAT        11.8358  -13.4530  -24.6640 C.ar        1 MOL      -0.0602
     20 PBY        14.0598  -10.7196  -28.0168 P.3         1 MOL       0.0154
     21 OAG        14.5733   -9.7508  -27.0779 O.co2       1 MOL      -0.6174
     22 OAD        12.7614  -10.2241  -28.3698 O.co2       1 MOL      -0.6174
     23 N          15.6681   -7.0121  -29.4598 N.am        1 MOL      -0.2694
     24 CA         15.0203   -5.7514  -29.2462 C.3         1 MOL       0.1024
     25 C          15.0343   -4.9481  -30.4892 C.2         1 MOL       0.0619
     26 OXT        14.1278   -3.9613  -30.6668 O.co2       1 MOL      -0.5665
     27 O          15.9686   -5.1366  -31.4494 O.co2       1 MOL      -0.5665
     28 CB         15.6922   -4.9931  -28.0578 C.3         1 MOL       0.0108
     29 CG         15.9583   -5.8454  -26.8582 C.ar        1 MOL      -0.0499
     30 CD1        17.2771   -6.0268  -26.3726 C.ar        1 MOL      -0.0686
     31 CE1        17.5330   -6.8699  -25.2762 C.ar        1 MOL      -0.0398
     32 CZ         16.4734   -7.5495  -24.6483 C.ar        1 MOL       0.0805
     33 OH         16.7149   -8.3732  -23.5992 O.3         1 MOL      -0.3376
     34 CE2        15.1557   -7.3690  -25.1083 C.ar        1 MOL      -0.0398
     35 CD2        14.9014   -6.5212  -26.2021 C.ar        1 MOL      -0.0686
     36 CBF        14.9614  -10.6943  -29.4359 C.3         1 MOL       0.0375
     37 CBV        15.8350   -9.4291  -29.7802 C.3         1 MOL       0.0788
     38 CBN        15.0807   -8.1660  -29.7583 C.2         1 MOL       0.1848
     39 OAC        13.9104   -8.1671  -30.1179 O.2         1 MOL      -0.3964
     40 CBC        17.1912   -9.4147  -28.9754 C.3         1 MOL       0.0422
     41 CBS        18.3410   -9.0054  -29.8111 C.2         1 MOL       0.1411
     42 CBA        19.3353   -9.8332  -30.3165 C.2         1 MOL      -0.0269
     43 OBK        18.5776   -7.7689  -30.3024 O.3         1 MOL      -0.1670
     44 NBG        19.6437   -7.7983  -31.0583 N.2         1 MOL      -0.1519
     45 CBU        20.1549   -9.0470  -31.1162 C.2         1 MOL       0.0430
     46 CBT        21.2980   -9.4399  -31.8736 C.ar        1 MOL      -0.0150
     47 CAU        21.7044  -10.7975  -31.9608 C.ar        1 MOL      -0.0551
     48 CAO        22.8418  -11.1739  -32.6974 C.ar        1 MOL      -0.0621
     49 CAJ        23.5976  -10.2014  -33.3724 C.ar        1 MOL      -0.0626
     50 CAP        23.2028   -8.8528  -33.3189 C.ar        1 MOL      -0.0621
     51 CAV        22.0669   -8.4776  -32.5768 C.ar        1 MOL      -0.0551
     52 H1         18.4286  -15.9209  -25.1160 H           1 MOL       0.0557
     53 H2         17.9754  -18.1362  -25.9647 H           1 MOL       0.0599
     54 H3         15.8510  -19.2158  -25.5004 H           1 MOL       0.0559
     55 H4         14.1834  -18.0785  -24.1508 H           1 MOL       0.0599
     56 H5         14.6130  -15.8641  -23.3017 H           1 MOL       0.0557
     57 H6         17.8150  -14.0073  -23.7352 H           1 MOL       0.0776
     58 H7         16.4263  -14.1506  -22.6784 H           1 MOL       0.0776
     59 H8         14.9078  -11.5191  -25.6537 H           1 MOL       0.1888
     60 H9         14.3419  -12.9371  -28.0988 H           1 MOL       0.0787
     61 H10        12.5483  -13.8921  -27.1065 H           1 MOL       0.0465
     62 H11        11.7918  -12.4858  -27.7812 H           1 MOL       0.0465
     63 H12        11.5499  -10.4161  -26.0798 H           1 MOL       0.0557
     64 H13        10.6108   -9.8995  -23.9255 H           1 MOL       0.0599
     65 H14        10.4281  -11.6222  -22.2214 H           1 MOL       0.0559
     66 H15        11.2080  -13.8752  -22.6890 H           1 MOL       0.0599
     67 H16        12.1542  -14.4099  -24.8375 H           1 MOL       0.0557
     68 H17        16.6209   -7.0319  -29.2900 H           1 MOL       0.1876
     69 H18        13.9723   -5.9161  -28.9776 H           1 MOL       0.0747
     70 H19        15.0407   -4.1675  -27.7501 H           1 MOL       0.0446
     71 H20        16.6258   -4.5420  -28.4095 H           1 MOL       0.0446
     72 H21        18.0650   -5.5524  -26.8173 H           1 MOL       0.0530
     73 H22        18.4909   -6.9965  -24.9407 H           1 MOL       0.0525
     74 H23        16.9125   -9.2432  -24.0106 H           1 MOL       0.2458
     75 H24        14.3838   -7.8650  -24.6591 H           1 MOL       0.0525
     76 H25        13.9397   -6.4145  -26.5292 H           1 MOL       0.0530
     77 H26        14.2609  -10.8582  -30.2614 H           1 MOL       0.0495
     78 H27        15.6176  -11.5622  -29.4442 H           1 MOL       0.0495
     79 H28        16.0931   -9.5690  -30.8395 H           1 MOL       0.0581
     80 H29        17.4092  -10.4077  -28.5734 H           1 MOL       0.0513
     81 H30        17.1235   -8.7514  -28.1120 H           1 MOL       0.0513
     82 H31        19.4130  -10.8342  -30.1424 H           1 MOL       0.0289
     83 H32        21.1755  -11.5353  -31.4975 H           1 MOL       0.0616
     84 H33        23.1156  -12.1586  -32.7483 H           1 MOL       0.0615
     85 H34        24.4278  -10.4743  -33.9053 H           1 MOL       0.0610
     86 H35        23.7424   -8.1465  -33.8210 H           1 MOL       0.0615
     87 H36        21.8138   -7.4862  -32.5503 H           1 MOL       0.0616
@<TRIPOS>BOND
     1     1     2  ar
     2     6     1  ar
     3     2     3  ar
     4     4     3  ar
     5     5     4  ar
     6     6     5  ar
     7     7     6   1
     8     8     7   1
     9     9     8   1
    10     9    10   2
    11    11     9  am
    12    12    11   1
    13    12    13   1
    14    20    12   1
    15    13    14   1
    16    14    15  ar
    17    14    19  ar
    18    15    16  ar
    19    16    17  ar
    20    18    17  ar
    21    19    18  ar
    22    20    21  ar
    23    20    22  ar
    24    36    20   1
    25    23    24   1
    26    38    23  am
    27    24    25   1
    28    24    28   1
    29    25    26  ar
    30    25    27  ar
    31    28    29   1
    32    29    30  ar
    33    29    35  ar
    34    30    31  ar
    35    31    32  ar
    36    32    33   1
    37    34    32  ar
    38    35    34  ar
    39    37    36   1
    40    37    38   1
    41    37    40   1
    42    38    39   2
    43    40    41   1
    44    41    42   2
    45    41    43   1
    46    42    45   1
    47    43    44   1
    48    44    45   2
    49    45    46   1
    50    46    47  ar
    51    46    51  ar
    52    47    48  ar
    53    48    49  ar
    54    49    50  ar
    55    50    51  ar
    56     1    52   1
    57     2    53   1
    58     3    54   1
    59     4    55   1
    60     5    56   1
    61     7    57   1
    62     7    58   1
    63    11    59   1
    64    12    60   1
    65    13    61   1
    66    13    62   1
    67    15    63   1
    68    16    64   1
    69    17    65   1
    70    18    66   1
    71    19    67   1
    72    23    68   1
    73    24    69   1
    74    28    70   1
    75    28    71   1
    76    30    72   1
    77    31    73   1
    78    33    74   1
    79    34    75   1
    80    35    76   1
    81    36    77   1
    82    36    78   1
    83    37    79   1
    84    40    80   1
    85    40    81   1
    86    42    82   1
    87    47    83   1
    88    48    84   1
    89    49    85   1
    90    50    86   1
    91    51    87   1
@<TRIPOS>SUBSTRUCTURE
     1  MOL      1

