@<TRIPOS>MOLECULE
2xy9_ligand_065
    87    91
SMALL
GAST_HUCK
****
This file was generated by PARSER (from files_GN.cpp)

@<TRIPOS>ATOM
      1 CAQ        17.3429   -5.7901  -31.0160 C.ar        1 MOL      -0.0578
      2 CAK        17.2544   -7.0249  -31.6836 C.ar        1 MOL      -0.0685
      3 CAH        18.4264   -7.7169  -32.0414 C.ar        1 MOL      -0.0687
      4 CAL        19.6861   -7.1668  -31.7426 C.ar        1 MOL      -0.0685
      5 CAR        19.7735   -5.9317  -31.0754 C.ar        1 MOL      -0.0578
      6 CBP        18.6037   -5.2331  -30.6955 C.ar        1 MOL      -0.0130
      7 CBB        18.6810   -3.9398  -29.9746 C.3         1 MOL       0.1113
      8 OBJ        17.8202   -3.9423  -28.8330 O.3         1 MOL      -0.2506
      9 CBM        18.0466   -4.4683  -27.6046 C.2         1 MOL       0.3232
     10 OAB        19.2449   -5.0078  -27.2752 O.2         1 MOL      -0.3774
     11 NBI        16.9807   -4.4612  -26.7749 N.am        1 MOL      -0.2418
     12 CBX        16.8412   -5.0297  -25.4609 C.3         1 MOL       0.1176
     13 CBE        15.4193   -4.6093  -24.9428 C.3         1 MOL       0.0205
     14 CBQ        15.2434   -4.5471  -23.4630 C.ar        1 MOL      -0.0393
     15 CAS        14.8728   -5.6899  -22.7139 C.ar        1 MOL      -0.0602
     16 CAM        14.6130   -5.6020  -21.3331 C.ar        1 MOL      -0.0686
     17 CAI        14.6923   -4.3596  -20.6815 C.ar        1 MOL      -0.0687
     18 CAN        15.0287   -3.2071  -21.4122 C.ar        1 MOL      -0.0686
     19 CAT        15.2996   -3.3012  -22.7910 C.ar        1 MOL      -0.0602
     20 PBY        17.0801   -6.6998  -25.5064 P.3         1 MOL       0.0154
     21 OAG        16.7157   -7.3139  -24.2556 O.co2       1 MOL      -0.6174
     22 OAD        18.5035   -6.9552  -25.5475 O.co2       1 MOL      -0.6174
     23 N          14.3514  -10.2282  -25.3184 N.am        1 MOL      -0.2694
     24 CA         13.3809  -10.6357  -24.3380 C.3         1 MOL       0.1024
     25 C          12.0186  -10.0565  -24.4935 C.2         1 MOL       0.0619
     26 OXT        10.9530  -10.6709  -23.9172 O.co2       1 MOL      -0.5665
     27 O          11.7796   -8.9559  -25.2541 O.co2       1 MOL      -0.5665
     28 CB         13.9241  -10.4778  -22.8813 C.3         1 MOL       0.0108
     29 CG         15.2444  -11.1364  -22.6668 C.ar        1 MOL      -0.0499
     30 CD1        15.4051  -12.5143  -22.9424 C.ar        1 MOL      -0.0686
     31 CE1        16.6355  -13.1591  -22.7353 C.ar        1 MOL      -0.0398
     32 CZ         17.7291  -12.4408  -22.2085 C.ar        1 MOL       0.0805
     33 OH         18.9106  -13.0659  -21.9504 O.3         1 MOL      -0.3376
     34 CE2        17.5901  -11.0651  -21.9413 C.ar        1 MOL      -0.0398
     35 CD2        16.3630  -10.4136  -22.1776 C.ar        1 MOL      -0.0686
     36 CBF        16.3425   -7.4067  -26.8420 C.3         1 MOL       0.0375
     37 CBV        15.7599   -8.8633  -26.7087 C.3         1 MOL       0.0788
     38 CBN        14.7324   -9.0084  -25.6686 C.2         1 MOL       0.1848
     39 OAC        14.1933   -8.0321  -25.1610 O.2         1 MOL      -0.3964
     40 CBC        15.2986   -9.3431  -28.1442 C.3         1 MOL       0.0422
     41 CBS        14.3369  -10.4609  -28.2121 C.2         1 MOL       0.1411
     42 CBA        14.5137  -11.7424  -28.7171 C.2         1 MOL      -0.0269
     43 OBK        13.0841  -10.3969  -27.7051 O.3         1 MOL      -0.1670
     44 NBG        12.4931  -11.5514  -27.8871 N.2         1 MOL      -0.1519
     45 CBU        13.3229  -12.4262  -28.4866 C.2         1 MOL       0.0430
     46 CBT        12.9658  -13.7495  -28.8634 C.ar        1 MOL      -0.0150
     47 CAU        13.7074  -14.4763  -29.8317 C.ar        1 MOL      -0.0551
     48 CAO        13.2686  -15.7361  -30.2844 C.ar        1 MOL      -0.0621
     49 CAJ        12.0886  -16.2954  -29.7630 C.ar        1 MOL      -0.0626
     50 CAP        11.3577  -15.6086  -28.7787 C.ar        1 MOL      -0.0621
     51 CAV        11.7904  -14.3434  -28.3405 C.ar        1 MOL      -0.0551
     52 H1         16.4806   -5.3021  -30.7593 H           1 MOL       0.0557
     53 H2         16.3393   -7.4227  -31.9071 H           1 MOL       0.0599
     54 H3         18.3633   -8.6179  -32.5207 H           1 MOL       0.0559
     55 H4         20.5386   -7.6656  -32.0091 H           1 MOL       0.0599
     56 H5         20.6964   -5.5454  -30.8676 H           1 MOL       0.0557
     57 H6         18.3365   -3.1440  -30.6358 H           1 MOL       0.0776
     58 H7         19.7037   -3.7004  -29.6720 H           1 MOL       0.0776
     59 H8         16.1831   -4.0485  -27.1436 H           1 MOL       0.1888
     60 H9         17.5989   -4.5808  -24.8086 H           1 MOL       0.0787
     61 H10        14.6478   -5.2553  -25.3692 H           1 MOL       0.0465
     62 H11        15.1860   -3.6120  -25.3250 H           1 MOL       0.0465
     63 H12        14.7630   -6.5964  -23.1720 H           1 MOL       0.0557
     64 H13        14.3408   -6.4391  -20.8129 H           1 MOL       0.0599
     65 H14        14.4830   -4.2890  -19.6853 H           1 MOL       0.0559
     66 H15        15.0555   -2.2975  -20.9437 H           1 MOL       0.0599
     67 H16        15.5005   -2.4432  -23.3132 H           1 MOL       0.0557
     68 H17        14.8197  -10.9488  -25.7526 H           1 MOL       0.1876
     69 H18        13.2332  -11.6983  -24.5238 H           1 MOL       0.0747
     70 H19        13.2157  -10.9259  -22.1731 H           1 MOL       0.0446
     71 H20        13.9751   -9.4073  -22.6472 H           1 MOL       0.0446
     72 H21        14.6189  -13.0660  -23.2853 H           1 MOL       0.0530
     73 H22        16.7311  -14.1545  -22.9416 H           1 MOL       0.0525
     74 H23        18.7148  -14.0276  -21.9762 H           1 MOL       0.2458
     75 H24        18.3838  -10.5381  -21.5591 H           1 MOL       0.0525
     76 H25        16.2868   -9.4144  -21.9678 H           1 MOL       0.0530
     77 H26        17.0807   -7.3918  -27.6516 H           1 MOL       0.0495
     78 H27        15.5264   -6.7480  -27.1604 H           1 MOL       0.0495
     79 H28        16.5989   -9.5032  -26.4112 H           1 MOL       0.0581
     80 H29        16.2011   -9.6129  -28.7156 H           1 MOL       0.0513
     81 H30        14.8228   -8.5160  -28.6848 H           1 MOL       0.0513
     82 H31        15.3548  -12.1076  -29.1801 H           1 MOL       0.0289
     83 H32        14.5580  -14.0894  -30.2375 H           1 MOL       0.0616
     84 H33        13.7967  -16.2364  -31.0019 H           1 MOL       0.0615
     85 H34        11.7487  -17.1956  -30.1158 H           1 MOL       0.0610
     86 H35        10.4999  -16.0180  -28.4006 H           1 MOL       0.0615
     87 H36        11.2295  -13.8601  -27.6296 H           1 MOL       0.0616
@<TRIPOS>BOND
     1     1     2  ar
     2     6     1  ar
     3     2     3  ar
     4     4     3  ar
     5     5     4  ar
     6     6     5  ar
     7     7     6   1
     8     8     7   1
     9     9     8   1
    10     9    10   2
    11    11     9  am
    12    12    11   1
    13    12    13   1
    14    20    12   1
    15    13    14   1
    16    14    15  ar
    17    14    19  ar
    18    15    16  ar
    19    16    17  ar
    20    18    17  ar
    21    19    18  ar
    22    20    21  ar
    23    20    22  ar
    24    36    20   1
    25    23    24   1
    26    38    23  am
    27    24    25   1
    28    24    28   1
    29    25    26  ar
    30    25    27  ar
    31    28    29   1
    32    29    30  ar
    33    29    35  ar
    34    30    31  ar
    35    31    32  ar
    36    32    33   1
    37    34    32  ar
    38    35    34  ar
    39    37    36   1
    40    37    38   1
    41    37    40   1
    42    38    39   2
    43    40    41   1
    44    41    42   2
    45    41    43   1
    46    42    45   1
    47    43    44   1
    48    44    45   2
    49    45    46   1
    50    46    47  ar
    51    46    51  ar
    52    47    48  ar
    53    48    49  ar
    54    49    50  ar
    55    50    51  ar
    56     1    52   1
    57     2    53   1
    58     3    54   1
    59     4    55   1
    60     5    56   1
    61     7    57   1
    62     7    58   1
    63    11    59   1
    64    12    60   1
    65    13    61   1
    66    13    62   1
    67    15    63   1
    68    16    64   1
    69    17    65   1
    70    18    66   1
    71    19    67   1
    72    23    68   1
    73    24    69   1
    74    28    70   1
    75    28    71   1
    76    30    72   1
    77    31    73   1
    78    33    74   1
    79    34    75   1
    80    35    76   1
    81    36    77   1
    82    36    78   1
    83    37    79   1
    84    40    80   1
    85    40    81   1
    86    42    82   1
    87    47    83   1
    88    48    84   1
    89    49    85   1
    90    50    86   1
    91    51    87   1
@<TRIPOS>SUBSTRUCTURE
     1  MOL      1

