@<TRIPOS>MOLECULE
2xy9_ligand_064
    87    91
SMALL
GAST_HUCK
****
This file was generated by PARSER (from files_GN.cpp)

@<TRIPOS>ATOM
      1 CAQ        16.6350    1.7862  -15.6560 C.ar        1 MOL      -0.0578
      2 CAK        15.9294    2.6473  -14.7936 C.ar        1 MOL      -0.0685
      3 CAH        14.6822    3.1683  -15.1825 C.ar        1 MOL      -0.0687
      4 CAL        14.1474    2.8362  -16.4385 C.ar        1 MOL      -0.0685
      5 CAR        14.8570    1.9846  -17.3043 C.ar        1 MOL      -0.0578
      6 CBP        16.1027    1.4315  -16.9180 C.ar        1 MOL      -0.0130
      7 CBB        16.8520    0.5237  -17.8227 C.3         1 MOL       0.1113
      8 OBJ        15.9622   -0.2565  -18.6341 O.3         1 MOL      -0.2506
      9 CBM        15.7356   -1.5928  -18.6159 C.2         1 MOL       0.3232
     10 OAB        16.3990   -2.3977  -17.7516 O.2         1 MOL      -0.3774
     11 NBI        14.8189   -2.0696  -19.4875 N.am        1 MOL      -0.2418
     12 CBX        14.4492   -3.4477  -19.6478 C.3         1 MOL       0.1176
     13 CBE        12.8952   -3.5728  -19.7547 C.3         1 MOL       0.0205
     14 CBQ        12.1195   -3.1140  -18.5623 C.ar        1 MOL      -0.0393
     15 CAS        11.5646   -4.0521  -17.6545 C.ar        1 MOL      -0.0602
     16 CAM        10.7589   -3.6329  -16.5809 C.ar        1 MOL      -0.0686
     17 CAI        10.5036   -2.2638  -16.3911 C.ar        1 MOL      -0.0687
     18 CAN        11.0507   -1.3155  -17.2755 C.ar        1 MOL      -0.0686
     19 CAT        11.8497   -1.7381  -18.3540 C.ar        1 MOL      -0.0602
     20 PBY        15.3351   -4.1327  -20.9204 P.3         1 MOL       0.0154
     21 OAG        16.1698   -5.1346  -20.3038 O.co2       1 MOL      -0.6174
     22 OAD        16.2990   -3.1938  -21.4407 O.co2       1 MOL      -0.6174
     23 N          16.0721   -6.6762  -25.0263 N.am        1 MOL      -0.2694
     24 CA         16.8497   -6.6530  -26.2434 C.3         1 MOL       0.1024
     25 C          17.9803   -5.6929  -26.2967 C.2         1 MOL       0.0619
     26 OXT        19.1574   -6.0269  -25.7152 O.co2       1 MOL      -0.5665
     27 O          17.7733   -4.3815  -26.5473 O.co2       1 MOL      -0.5665
     28 CB         15.9138   -6.5522  -27.4965 C.3         1 MOL       0.0108
     29 CG         14.7391   -5.6437  -27.3428 C.ar        1 MOL      -0.0499
     30 CD1        13.5096   -6.1487  -26.8518 C.ar        1 MOL      -0.0686
     31 CE1        12.4169   -5.2921  -26.6309 C.ar        1 MOL      -0.0398
     32 CZ         12.5323   -3.9171  -26.8994 C.ar        1 MOL       0.0805
     33 OH         11.5006   -3.0743  -26.6572 O.3         1 MOL      -0.3376
     34 CE2        13.7332   -3.4098  -27.4294 C.ar        1 MOL      -0.0398
     35 CD2        14.8296   -4.2655  -27.6447 C.ar        1 MOL      -0.0686
     36 CBF        14.4952   -4.7727  -22.2329 C.3         1 MOL       0.0375
     37 CBV        14.9764   -6.0730  -22.9707 C.3         1 MOL       0.0788
     38 CBN        16.0301   -5.8652  -23.9732 C.2         1 MOL       0.1848
     39 OAC        16.8094   -4.9283  -23.8582 O.2         1 MOL      -0.3964
     40 CBC        15.3052   -7.2527  -21.9945 C.3         1 MOL       0.0422
     41 CBS        14.9485   -8.6040  -22.4700 C.2         1 MOL       0.1411
     42 CBA        15.6509   -9.4351  -23.3298 C.2         1 MOL      -0.0269
     43 OBK        13.8712   -9.2984  -22.0339 O.3         1 MOL      -0.1670
     44 NBG        13.8668  -10.4805  -22.5909 N.2         1 MOL      -0.1519
     45 CBU        14.9404  -10.6330  -23.3944 C.2         1 MOL       0.0430
     46 CBT        15.2303  -11.8154  -24.1328 C.ar        1 MOL      -0.0150
     47 CAU        16.3925  -11.9239  -24.9375 C.ar        1 MOL      -0.0551
     48 CAO        16.6552  -13.0909  -25.6765 C.ar        1 MOL      -0.0621
     49 CAJ        15.7640  -14.1755  -25.6244 C.ar        1 MOL      -0.0626
     50 CAP        14.6121  -14.0938  -24.8257 C.ar        1 MOL      -0.0621
     51 CAV        14.3480  -12.9256  -24.0884 C.ar        1 MOL      -0.0551
     52 H1         17.5426    1.4225  -15.3523 H           1 MOL       0.0557
     53 H2         16.3220    2.8969  -13.8815 H           1 MOL       0.0599
     54 H3         14.1662    3.7889  -14.5563 H           1 MOL       0.0559
     55 H4         13.2406    3.2151  -16.7272 H           1 MOL       0.0599
     56 H5         14.4495    1.7659  -18.2172 H           1 MOL       0.0557
     57 H6         17.5194   -0.1285  -17.2516 H           1 MOL       0.0776
     58 H7         17.4706    1.1277  -18.4877 H           1 MOL       0.0776
     59 H8         14.4061   -1.4217  -20.0814 H           1 MOL       0.1888
     60 H9         14.7084   -3.9930  -18.7324 H           1 MOL       0.0787
     61 H10        12.6499   -4.6252  -19.9126 H           1 MOL       0.0465
     62 H11        12.5379   -3.0284  -20.6310 H           1 MOL       0.0465
     63 H12        11.7292   -5.0538  -17.7807 H           1 MOL       0.0557
     64 H13        10.3548   -4.3223  -15.9462 H           1 MOL       0.0599
     65 H14         9.9080   -1.9582  -15.6154 H           1 MOL       0.0559
     66 H15        10.8536   -0.3227  -17.1424 H           1 MOL       0.0599
     67 H16        12.2113   -1.0368  -19.0045 H           1 MOL       0.0557
     68 H17        15.4198   -7.3941  -25.0027 H           1 MOL       0.1876
     69 H18        17.3130   -7.6388  -26.2893 H           1 MOL       0.0747
     70 H19        15.5443   -7.5565  -27.7300 H           1 MOL       0.0446
     71 H20        16.4908   -6.2527  -28.3790 H           1 MOL       0.0446
     72 H21        13.4069   -7.1438  -26.6363 H           1 MOL       0.0530
     73 H22        11.5411   -5.6735  -26.2656 H           1 MOL       0.0525
     74 H23        10.9714   -3.5034  -25.9436 H           1 MOL       0.2458
     75 H24        13.8171   -2.4128  -27.6483 H           1 MOL       0.0525
     76 H25        15.6945   -3.8724  -28.0215 H           1 MOL       0.0530
     77 H26        14.3826   -3.9657  -22.9680 H           1 MOL       0.0495
     78 H27        13.4854   -5.0003  -21.9022 H           1 MOL       0.0495
     79 H28        14.0886   -6.3744  -23.5365 H           1 MOL       0.0581
     80 H29        14.7444   -7.1178  -21.0690 H           1 MOL       0.0513
     81 H30        16.3652   -7.2543  -21.7287 H           1 MOL       0.0513
     82 H31        16.5304   -9.2043  -23.7914 H           1 MOL       0.0289
     83 H32        17.0664  -11.1561  -24.9959 H           1 MOL       0.0616
     84 H33        17.4948  -13.1476  -26.2557 H           1 MOL       0.0615
     85 H34        15.9538  -15.0206  -26.1633 H           1 MOL       0.0610
     86 H35        13.9621  -14.8814  -24.7842 H           1 MOL       0.0615
     87 H36        13.4982  -12.8963  -23.5171 H           1 MOL       0.0616
@<TRIPOS>BOND
     1     1     2  ar
     2     6     1  ar
     3     2     3  ar
     4     4     3  ar
     5     5     4  ar
     6     6     5  ar
     7     7     6   1
     8     8     7   1
     9     9     8   1
    10     9    10   2
    11    11     9  am
    12    12    11   1
    13    12    13   1
    14    20    12   1
    15    13    14   1
    16    14    15  ar
    17    14    19  ar
    18    15    16  ar
    19    16    17  ar
    20    18    17  ar
    21    19    18  ar
    22    20    21  ar
    23    20    22  ar
    24    36    20   1
    25    23    24   1
    26    38    23  am
    27    24    25   1
    28    24    28   1
    29    25    26  ar
    30    25    27  ar
    31    28    29   1
    32    29    30  ar
    33    29    35  ar
    34    30    31  ar
    35    31    32  ar
    36    32    33   1
    37    34    32  ar
    38    35    34  ar
    39    37    36   1
    40    37    38   1
    41    37    40   1
    42    38    39   2
    43    40    41   1
    44    41    42   2
    45    41    43   1
    46    42    45   1
    47    43    44   1
    48    44    45   2
    49    45    46   1
    50    46    47  ar
    51    46    51  ar
    52    47    48  ar
    53    48    49  ar
    54    49    50  ar
    55    50    51  ar
    56     1    52   1
    57     2    53   1
    58     3    54   1
    59     4    55   1
    60     5    56   1
    61     7    57   1
    62     7    58   1
    63    11    59   1
    64    12    60   1
    65    13    61   1
    66    13    62   1
    67    15    63   1
    68    16    64   1
    69    17    65   1
    70    18    66   1
    71    19    67   1
    72    23    68   1
    73    24    69   1
    74    28    70   1
    75    28    71   1
    76    30    72   1
    77    31    73   1
    78    33    74   1
    79    34    75   1
    80    35    76   1
    81    36    77   1
    82    36    78   1
    83    37    79   1
    84    40    80   1
    85    40    81   1
    86    42    82   1
    87    47    83   1
    88    48    84   1
    89    49    85   1
    90    50    86   1
    91    51    87   1
@<TRIPOS>SUBSTRUCTURE
     1  MOL      1

