@<TRIPOS>MOLECULE
2xy9_ligand_060
    87    91
SMALL
GAST_HUCK
****
This file was generated by PARSER (from files_GN.cpp)

@<TRIPOS>ATOM
      1 CAQ        17.8638   -9.7242  -32.5538 C.ar        1 MOL      -0.0578
      2 CAK        16.9216  -10.7052  -32.9202 C.ar        1 MOL      -0.0685
      3 CAH        17.2980  -12.0585  -32.9683 C.ar        1 MOL      -0.0687
      4 CAL        18.6195  -12.4274  -32.6559 C.ar        1 MOL      -0.0685
      5 CAR        19.5595  -11.4498  -32.2991 C.ar        1 MOL      -0.0578
      6 CBP        19.2006  -10.0798  -32.2308 C.ar        1 MOL      -0.0130
      7 CBB        20.2187   -9.0772  -31.8039 C.3         1 MOL       0.1113
      8 OBJ        19.6176   -7.8051  -31.5062 O.3         1 MOL      -0.2506
      9 CBM        19.4059   -7.2347  -30.2895 C.2         1 MOL       0.3232
     10 OAB        19.8362   -7.8369  -29.1533 O.2         1 MOL      -0.3774
     11 NBI        18.5189   -6.2185  -30.2866 N.am        1 MOL      -0.2418
     12 CBX        17.7931   -5.6371  -29.1817 C.3         1 MOL       0.1176
     13 CBE        16.7749   -4.6415  -29.8452 C.3         1 MOL       0.0205
     14 CBQ        15.7297   -4.0522  -28.9643 C.ar        1 MOL      -0.0393
     15 CAS        16.0767   -3.1728  -27.9081 C.ar        1 MOL      -0.0602
     16 CAM        15.0939   -2.6872  -27.0254 C.ar        1 MOL      -0.0686
     17 CAI        13.7509   -3.0872  -27.1820 C.ar        1 MOL      -0.0687
     18 CAN        13.3806   -3.9230  -28.2501 C.ar        1 MOL      -0.0686
     19 CAT        14.3690   -4.4006  -29.1346 C.ar        1 MOL      -0.0602
     20 PBY        17.0849   -6.7978  -28.1727 P.3         1 MOL       0.0154
     21 OAG        16.0343   -6.2579  -27.3402 O.co2       1 MOL      -0.6174
     22 OAD        18.0610   -7.2357  -27.2002 O.co2       1 MOL      -0.6174
     23 N          13.9402   -9.3541  -26.6569 N.am        1 MOL      -0.2694
     24 CA         12.6301   -9.1627  -26.1041 C.3         1 MOL       0.1024
     25 C          11.5161   -9.4840  -27.0423 C.2         1 MOL       0.0619
     26 OXT        11.7283  -10.1169  -28.2155 O.co2       1 MOL      -0.5665
     27 O          10.2498   -9.4522  -26.5785 O.co2       1 MOL      -0.5665
     28 CB         12.4955   -7.7512  -25.4576 C.3         1 MOL       0.0108
     29 CG         13.4320   -7.3964  -24.3450 C.ar        1 MOL      -0.0499
     30 CD1        14.1080   -8.3806  -23.5777 C.ar        1 MOL      -0.0686
     31 CE1        14.9458   -8.0215  -22.5008 C.ar        1 MOL      -0.0398
     32 CZ         15.1163   -6.6647  -22.1686 C.ar        1 MOL       0.0805
     33 OH         15.9272   -6.3540  -21.1245 O.3         1 MOL      -0.3376
     34 CE2        14.4524   -5.6720  -22.9150 C.ar        1 MOL      -0.0398
     35 CD2        13.6111   -6.0355  -23.9824 C.ar        1 MOL      -0.0686
     36 CBF        16.5766   -8.1550  -28.9955 C.3         1 MOL       0.0375
     37 CBV        15.8160   -9.2493  -28.1791 C.3         1 MOL       0.0788
     38 CBN        14.4680   -8.8453  -27.7662 C.2         1 MOL       0.1848
     39 OAC        13.7908   -8.1369  -28.5023 O.2         1 MOL      -0.3964
     40 CBC        15.8012  -10.5811  -28.9993 C.3         1 MOL       0.0422
     41 CBS        14.9888  -11.6769  -28.4422 C.2         1 MOL       0.1411
     42 CBA        14.2707  -12.6002  -29.1775 C.2         1 MOL      -0.0269
     43 OBK        14.7395  -11.9211  -27.1338 O.3         1 MOL      -0.1670
     44 NBG        13.8839  -12.9106  -27.0385 N.2         1 MOL      -0.1519
     45 CBU        13.5556  -13.3598  -28.2668 C.2         1 MOL       0.0430
     46 CBT        12.6219  -14.3799  -28.5395 C.ar        1 MOL      -0.0150
     47 CAU        12.7441  -15.1979  -29.6878 C.ar        1 MOL      -0.0551
     48 CAO        11.8333  -16.2415  -29.9340 C.ar        1 MOL      -0.0621
     49 CAJ        10.7680  -16.4653  -29.0448 C.ar        1 MOL      -0.0626
     50 CAP        10.6118  -15.6505  -27.9098 C.ar        1 MOL      -0.0621
     51 CAV        11.5411  -14.6168  -27.6546 C.ar        1 MOL      -0.0551
     52 H1         17.5622   -8.7503  -32.5336 H           1 MOL       0.0557
     53 H2         15.9642  -10.4331  -33.1516 H           1 MOL       0.0599
     54 H3         16.6121  -12.7718  -33.2244 H           1 MOL       0.0559
     55 H4         18.8916  -13.4131  -32.6869 H           1 MOL       0.0599
     56 H5         20.5156  -11.7406  -32.0712 H           1 MOL       0.0557
     57 H6         20.9517   -8.9376  -32.6035 H           1 MOL       0.0776
     58 H7         20.7497   -9.4605  -30.9236 H           1 MOL       0.0776
     59 H8         18.2595   -5.9146  -31.1704 H           1 MOL       0.1888
     60 H9         18.4964   -5.0509  -28.5778 H           1 MOL       0.0787
     61 H10        16.2944   -5.1428  -30.6939 H           1 MOL       0.0465
     62 H11        17.3479   -3.8082  -30.2710 H           1 MOL       0.0465
     63 H12        17.0514   -2.9018  -27.7572 H           1 MOL       0.0557
     64 H13        15.3538   -2.0774  -26.2451 H           1 MOL       0.0599
     65 H14        13.0337   -2.7609  -26.5289 H           1 MOL       0.0559
     66 H15        12.4026   -4.2121  -28.3631 H           1 MOL       0.0599
     67 H16        14.0808   -5.0293  -29.8874 H           1 MOL       0.0557
     68 H17        14.5217   -9.9378  -26.1520 H           1 MOL       0.1876
     69 H18        12.5319   -9.8995  -25.3047 H           1 MOL       0.0747
     70 H19        11.4865   -7.6370  -25.0559 H           1 MOL       0.0446
     71 H20        12.5970   -7.0030  -26.2517 H           1 MOL       0.0446
     72 H21        13.9945   -9.3791  -23.7806 H           1 MOL       0.0530
     73 H22        15.4220   -8.7515  -21.9635 H           1 MOL       0.0525
     74 H23        16.2262   -5.4291  -21.2568 H           1 MOL       0.2458
     75 H24        14.5731   -4.6848  -22.6707 H           1 MOL       0.0525
     76 H25        13.1245   -5.3000  -24.5006 H           1 MOL       0.0530
     77 H26        17.4783   -8.6047  -29.4209 H           1 MOL       0.0495
     78 H27        15.9646   -7.8289  -29.8369 H           1 MOL       0.0495
     79 H28        16.4103   -9.4444  -27.2772 H           1 MOL       0.0581
     80 H29        16.8213  -10.9640  -29.0729 H           1 MOL       0.0513
     81 H30        15.4559  -10.3606  -30.0124 H           1 MOL       0.0513
     82 H31        14.2527  -12.6767  -30.1976 H           1 MOL       0.0289
     83 H32        13.5192  -15.0673  -30.3476 H           1 MOL       0.0616
     84 H33        11.9501  -16.8396  -30.7542 H           1 MOL       0.0615
     85 H34        10.1074  -17.2287  -29.2099 H           1 MOL       0.0610
     86 H35         9.8373  -15.8102  -27.2624 H           1 MOL       0.0615
     87 H36        11.4079  -14.0390  -26.8205 H           1 MOL       0.0616
@<TRIPOS>BOND
     1     1     2  ar
     2     6     1  ar
     3     2     3  ar
     4     4     3  ar
     5     5     4  ar
     6     6     5  ar
     7     7     6   1
     8     8     7   1
     9     9     8   1
    10     9    10   2
    11    11     9  am
    12    12    11   1
    13    12    13   1
    14    20    12   1
    15    13    14   1
    16    14    15  ar
    17    14    19  ar
    18    15    16  ar
    19    16    17  ar
    20    18    17  ar
    21    19    18  ar
    22    20    21  ar
    23    20    22  ar
    24    36    20   1
    25    23    24   1
    26    38    23  am
    27    24    25   1
    28    24    28   1
    29    25    26  ar
    30    25    27  ar
    31    28    29   1
    32    29    30  ar
    33    29    35  ar
    34    30    31  ar
    35    31    32  ar
    36    32    33   1
    37    34    32  ar
    38    35    34  ar
    39    37    36   1
    40    37    38   1
    41    37    40   1
    42    38    39   2
    43    40    41   1
    44    41    42   2
    45    41    43   1
    46    42    45   1
    47    43    44   1
    48    44    45   2
    49    45    46   1
    50    46    47  ar
    51    46    51  ar
    52    47    48  ar
    53    48    49  ar
    54    49    50  ar
    55    50    51  ar
    56     1    52   1
    57     2    53   1
    58     3    54   1
    59     4    55   1
    60     5    56   1
    61     7    57   1
    62     7    58   1
    63    11    59   1
    64    12    60   1
    65    13    61   1
    66    13    62   1
    67    15    63   1
    68    16    64   1
    69    17    65   1
    70    18    66   1
    71    19    67   1
    72    23    68   1
    73    24    69   1
    74    28    70   1
    75    28    71   1
    76    30    72   1
    77    31    73   1
    78    33    74   1
    79    34    75   1
    80    35    76   1
    81    36    77   1
    82    36    78   1
    83    37    79   1
    84    40    80   1
    85    40    81   1
    86    42    82   1
    87    47    83   1
    88    48    84   1
    89    49    85   1
    90    50    86   1
    91    51    87   1
@<TRIPOS>SUBSTRUCTURE
     1  MOL      1

