@<TRIPOS>MOLECULE
2xy9_ligand_018
    87    91
SMALL
GAST_HUCK
****
This file was generated by PARSER (from files_GN.cpp)

@<TRIPOS>ATOM
      1 CAQ        14.6474   -3.2510  -25.8626 C.ar        1 MOL      -0.0578
      2 CAK        14.1776   -3.9779  -24.7533 C.ar        1 MOL      -0.0685
      3 CAH        12.8072   -4.2634  -24.6279 C.ar        1 MOL      -0.0687
      4 CAL        11.9064   -3.8159  -25.6109 C.ar        1 MOL      -0.0685
      5 CAR        12.3750   -3.0889  -26.7215 C.ar        1 MOL      -0.0578
      6 CBP        13.7521   -2.7987  -26.8608 C.ar        1 MOL      -0.0130
      7 CBB        14.2769   -2.0514  -28.0324 C.3         1 MOL       0.1113
      8 OBJ        15.1886   -2.8779  -28.7569 O.3         1 MOL      -0.2506
      9 CBM        14.9045   -3.9832  -29.4898 C.2         1 MOL       0.3232
     10 OAB        13.6305   -4.3896  -29.6927 O.2         1 MOL      -0.3774
     11 NBI        15.9859   -4.6735  -29.9019 N.am        1 MOL      -0.2418
     12 CBX        16.0764   -5.9144  -30.6161 C.3         1 MOL       0.1176
     13 CBE        17.5848   -6.1961  -30.9485 C.3         1 MOL       0.0205
     14 CBQ        18.5146   -6.2796  -29.7789 C.ar        1 MOL      -0.0393
     15 CAS        18.9405   -7.5330  -29.2777 C.ar        1 MOL      -0.0602
     16 CAM        19.7440   -7.6112  -28.1235 C.ar        1 MOL      -0.0686
     17 CAI        20.1280   -6.4365  -27.4521 C.ar        1 MOL      -0.0687
     18 CAN        19.7583   -5.1840  -27.9655 C.ar        1 MOL      -0.0686
     19 CAT        18.9867   -5.1068  -29.1381 C.ar        1 MOL      -0.0602
     20 PBY        15.2807   -7.2025  -29.8700 P.3         1 MOL       0.0154
     21 OAG        15.5759   -8.4509  -30.5344 O.co2       1 MOL      -0.6174
     22 OAD        13.8877   -7.0581  -30.2124 O.co2       1 MOL      -0.6174
     23 N          13.4912  -10.1311  -26.5578 N.am        1 MOL      -0.2694
     24 CA         12.2976  -10.9222  -26.4391 C.3         1 MOL       0.1024
     25 C          11.5079  -10.3113  -25.3441 C.2         1 MOL       0.0619
     26 OXT        10.2920   -9.7664  -25.5746 O.co2       1 MOL      -0.5665
     27 O          12.0220  -10.2181  -24.0975 O.co2       1 MOL      -0.5665
     28 CB         12.6483  -12.4239  -26.1411 C.3         1 MOL       0.0108
     29 CG         12.4468  -13.3487  -27.2953 C.ar        1 MOL      -0.0499
     30 CD1        13.3266  -13.3330  -28.4035 C.ar        1 MOL      -0.0686
     31 CE1        13.1399  -14.2170  -29.4849 C.ar        1 MOL      -0.0398
     32 CZ         12.0629  -15.1259  -29.4820 C.ar        1 MOL       0.0805
     33 OH         11.8328  -15.9749  -30.5184 O.3         1 MOL      -0.3376
     34 CE2        11.1878  -15.1550  -28.3820 C.ar        1 MOL      -0.0398
     35 CD2        11.3768  -14.2763  -27.3003 C.ar        1 MOL      -0.0686
     36 CBF        15.3130   -7.2674  -28.1956 C.3         1 MOL       0.0375
     37 CBV        15.1611   -8.6321  -27.4273 C.3         1 MOL       0.0788
     38 CBN        13.8774   -9.3356  -27.5505 C.2         1 MOL       0.1848
     39 OAC        13.1957   -9.2376  -28.5628 O.2         1 MOL      -0.3964
     40 CBC        16.3674   -9.5947  -27.6630 C.3         1 MOL       0.0422
     41 CBS        16.4979  -10.6877  -26.6793 C.2         1 MOL       0.1411
     42 CBA        16.7271  -10.5656  -25.3189 C.2         1 MOL      -0.0269
     43 OBK        16.4449  -12.0061  -26.9611 O.3         1 MOL      -0.1670
     44 NBG        16.6318  -12.6881  -25.8624 N.2         1 MOL      -0.1519
     45 CBU        16.8178  -11.8612  -24.8132 C.2         1 MOL       0.0430
     46 CBT        17.0779  -12.2746  -23.4769 C.ar        1 MOL      -0.0150
     47 CAU        17.1091  -11.3500  -22.4018 C.ar        1 MOL      -0.0551
     48 CAO        17.3703  -11.7737  -21.0865 C.ar        1 MOL      -0.0621
     49 CAJ        17.6212  -13.1302  -20.8213 C.ar        1 MOL      -0.0626
     50 CAP        17.6023  -14.0644  -21.8719 C.ar        1 MOL      -0.0621
     51 CAV        17.3241  -13.6404  -23.1851 C.ar        1 MOL      -0.0551
     52 H1         15.6489   -3.0512  -25.9369 H           1 MOL       0.0557
     53 H2         14.8340   -4.3004  -24.0393 H           1 MOL       0.0599
     54 H3         12.4688   -4.8007  -23.8267 H           1 MOL       0.0559
     55 H4         10.9092   -4.0200  -25.5201 H           1 MOL       0.0599
     56 H5         11.7035   -2.7710  -27.4243 H           1 MOL       0.0557
     57 H6         14.8208   -1.1703  -27.6843 H           1 MOL       0.0776
     58 H7         13.4880   -1.7058  -28.7018 H           1 MOL       0.0776
     59 H8         16.8235   -4.2553  -29.6723 H           1 MOL       0.1888
     60 H9         15.5861   -5.7595  -31.5805 H           1 MOL       0.0787
     61 H10        17.9465   -5.3981  -31.6048 H           1 MOL       0.0465
     62 H11        17.6580   -7.1106  -31.5442 H           1 MOL       0.0465
     63 H12        18.6526   -8.4002  -29.7361 H           1 MOL       0.0557
     64 H13        20.0404   -8.5216  -27.7665 H           1 MOL       0.0599
     65 H14        20.6869   -6.4881  -26.5984 H           1 MOL       0.0559
     66 H15        20.0440   -4.3308  -27.4828 H           1 MOL       0.0599
     67 H16        18.7666   -4.1792  -29.5093 H           1 MOL       0.0557
     68 H17        14.0818  -10.1627  -25.7864 H           1 MOL       0.1876
     69 H18        11.6970  -10.8599  -27.3524 H           1 MOL       0.0747
     70 H19        12.0496  -12.7832  -25.2978 H           1 MOL       0.0446
     71 H20        13.6870  -12.5150  -25.8093 H           1 MOL       0.0446
     72 H21        14.1147  -12.6816  -28.4265 H           1 MOL       0.0530
     73 H22        13.7877  -14.1925  -30.2771 H           1 MOL       0.0525
     74 H23        12.3715  -15.6652  -31.2766 H           1 MOL       0.2458
     75 H24        10.4004  -15.8090  -28.3728 H           1 MOL       0.0525
     76 H25        10.7182  -14.3143  -26.5172 H           1 MOL       0.0530
     77 H26        14.5349   -6.5932  -27.8248 H           1 MOL       0.0495
     78 H27        16.2599   -6.8207  -27.8825 H           1 MOL       0.0495
     79 H28        15.2300   -8.3188  -26.3778 H           1 MOL       0.0581
     80 H29        17.2966   -9.0277  -27.6157 H           1 MOL       0.0513
     81 H30        16.2985  -10.0426  -28.6556 H           1 MOL       0.0513
     82 H31        16.8344   -9.6873  -24.8093 H           1 MOL       0.0289
     83 H32        16.9349  -10.3558  -22.5567 H           1 MOL       0.0616
     84 H33        17.3829  -11.0939  -20.3225 H           1 MOL       0.0615
     85 H34        17.8145  -13.4368  -19.8654 H           1 MOL       0.0610
     86 H35        17.7914  -15.0504  -21.6847 H           1 MOL       0.0615
     87 H36        17.3201  -14.3443  -23.9268 H           1 MOL       0.0616
@<TRIPOS>BOND
     1     1     2  ar
     2     6     1  ar
     3     2     3  ar
     4     4     3  ar
     5     5     4  ar
     6     6     5  ar
     7     7     6   1
     8     8     7   1
     9     9     8   1
    10     9    10   2
    11    11     9  am
    12    12    11   1
    13    12    13   1
    14    20    12   1
    15    13    14   1
    16    14    15  ar
    17    14    19  ar
    18    15    16  ar
    19    16    17  ar
    20    18    17  ar
    21    19    18  ar
    22    20    21  ar
    23    20    22  ar
    24    36    20   1
    25    23    24   1
    26    38    23  am
    27    24    25   1
    28    24    28   1
    29    25    26  ar
    30    25    27  ar
    31    28    29   1
    32    29    30  ar
    33    29    35  ar
    34    30    31  ar
    35    31    32  ar
    36    32    33   1
    37    34    32  ar
    38    35    34  ar
    39    37    36   1
    40    37    38   1
    41    37    40   1
    42    38    39   2
    43    40    41   1
    44    41    42   2
    45    41    43   1
    46    42    45   1
    47    43    44   1
    48    44    45   2
    49    45    46   1
    50    46    47  ar
    51    46    51  ar
    52    47    48  ar
    53    48    49  ar
    54    49    50  ar
    55    50    51  ar
    56     1    52   1
    57     2    53   1
    58     3    54   1
    59     4    55   1
    60     5    56   1
    61     7    57   1
    62     7    58   1
    63    11    59   1
    64    12    60   1
    65    13    61   1
    66    13    62   1
    67    15    63   1
    68    16    64   1
    69    17    65   1
    70    18    66   1
    71    19    67   1
    72    23    68   1
    73    24    69   1
    74    28    70   1
    75    28    71   1
    76    30    72   1
    77    31    73   1
    78    33    74   1
    79    34    75   1
    80    35    76   1
    81    36    77   1
    82    36    78   1
    83    37    79   1
    84    40    80   1
    85    40    81   1
    86    42    82   1
    87    47    83   1
    88    48    84   1
    89    49    85   1
    90    50    86   1
    91    51    87   1
@<TRIPOS>SUBSTRUCTURE
     1  MOL      1

