@<TRIPOS>MOLECULE
2xy9_ligand_073
    87    91
SMALL
GAST_HUCK
****
This file was generated by PARSER (from files_GN.cpp)

@<TRIPOS>ATOM
      1 CAQ        11.8934  -12.5594  -24.7903 C.ar        1 MOL      -0.0578
      2 CAK        11.3514  -13.0000  -23.5685 C.ar        1 MOL      -0.0685
      3 CAH        10.5015  -12.1566  -22.8311 C.ar        1 MOL      -0.0687
      4 CAL        10.1917  -10.8752  -23.3177 C.ar        1 MOL      -0.0685
      5 CAR        10.7278  -10.4379  -24.5399 C.ar        1 MOL      -0.0578
      6 CBP        11.5849  -11.2733  -25.2939 C.ar        1 MOL      -0.0130
      7 CBB        12.1626  -10.8139  -26.5813 C.3         1 MOL       0.1113
      8 OBJ        13.5636  -10.5466  -26.4089 O.3         1 MOL      -0.2506
      9 CBM        14.1887   -9.3395  -26.4042 C.2         1 MOL       0.3232
     10 OAB        13.4784   -8.1994  -26.5444 O.2         1 MOL      -0.3774
     11 NBI        15.5326   -9.3464  -26.2468 N.am        1 MOL      -0.2418
     12 CBX        16.4385   -8.2282  -26.1902 C.3         1 MOL       0.1176
     13 CBE        16.3724   -7.2643  -27.4167 C.3         1 MOL       0.0205
     14 CBQ        17.0013   -7.8355  -28.6434 C.ar        1 MOL      -0.0393
     15 CAS        16.3327   -8.8235  -29.4092 C.ar        1 MOL      -0.0602
     16 CAM        16.9492   -9.3886  -30.5441 C.ar        1 MOL      -0.0686
     17 CAI        18.2346   -8.9682  -30.9328 C.ar        1 MOL      -0.0687
     18 CAN        18.9037   -7.9781  -30.1881 C.ar        1 MOL      -0.0686
     19 CAT        18.2909   -7.4187  -29.0496 C.ar        1 MOL      -0.0602
     20 PBY        16.4226   -7.4460  -24.7075 P.3         1 MOL       0.0154
     21 OAG        17.7110   -6.8058  -24.5843 O.co2       1 MOL      -0.6174
     22 OAD        16.4825   -8.4433  -23.6632 O.co2       1 MOL      -0.6174
     23 N          15.2642   -3.7548  -26.2303 N.am        1 MOL      -0.2694
     24 CA         15.5227   -2.7036  -27.1840 C.3         1 MOL       0.1024
     25 C          14.2872   -2.2810  -27.8837 C.2         1 MOL       0.0619
     26 OXT        13.0712   -2.8075  -27.5948 O.co2       1 MOL      -0.5665
     27 O          14.3238   -1.2953  -28.8161 O.co2       1 MOL      -0.5665
     28 CB         16.7117   -2.9770  -28.1596 C.3         1 MOL       0.0108
     29 CG         16.6562   -4.0173  -29.2310 C.ar        1 MOL      -0.0499
     30 CD1        15.5189   -4.8029  -29.5211 C.ar        1 MOL      -0.0686
     31 CE1        15.5344   -5.7509  -30.5687 C.ar        1 MOL      -0.0398
     32 CZ         16.7062   -5.9522  -31.3240 C.ar        1 MOL       0.0805
     33 OH         16.7246   -6.8816  -32.3157 O.3         1 MOL      -0.3376
     34 CE2        17.8513   -5.1867  -31.0374 C.ar        1 MOL      -0.0398
     35 CD2        17.8192   -4.2293  -30.0058 C.ar        1 MOL      -0.0686
     36 CBF        15.1972   -6.3395  -24.3840 C.3         1 MOL       0.0375
     37 CBV        15.6382   -4.8548  -24.0946 C.3         1 MOL       0.0788
     38 CBN        16.1138   -4.1801  -25.3058 C.2         1 MOL       0.1848
     39 OAC        17.3074   -3.9056  -25.3882 O.2         1 MOL      -0.3964
     40 CBC        14.5061   -4.0026  -23.4010 C.3         1 MOL       0.0422
     41 CBS        14.7689   -3.7095  -21.9767 C.2         1 MOL       0.1411
     42 CBA        13.9994   -4.0408  -20.8717 C.2         1 MOL      -0.0269
     43 OBK        15.8004   -2.9537  -21.5311 O.3         1 MOL      -0.1670
     44 NBG        15.6994   -2.8137  -20.2369 N.2         1 MOL      -0.1519
     45 CBU        14.6075   -3.4491  -19.7648 C.2         1 MOL       0.0430
     46 CBT        14.1759   -3.4191  -18.4062 C.ar        1 MOL      -0.0150
     47 CAU        13.0739   -4.1912  -17.9537 C.ar        1 MOL      -0.0551
     48 CAO        12.6336   -4.1087  -16.6206 C.ar        1 MOL      -0.0621
     49 CAJ        13.2854   -3.2599  -15.7124 C.ar        1 MOL      -0.0626
     50 CAP        14.3896   -2.4970  -16.1372 C.ar        1 MOL      -0.0621
     51 CAV        14.8315   -2.5816  -17.4644 C.ar        1 MOL      -0.0551
     52 H1         12.5136  -13.1829  -25.3126 H           1 MOL       0.0557
     53 H2         11.5735  -13.9342  -23.2154 H           1 MOL       0.0599
     54 H3         10.1082  -12.4757  -21.9423 H           1 MOL       0.0559
     55 H4          9.5755  -10.2574  -22.7797 H           1 MOL       0.0599
     56 H5         10.4955   -9.4969  -24.8717 H           1 MOL       0.0557
     57 H6         11.6357   -9.9316  -26.9539 H           1 MOL       0.0776
     58 H7         12.0480  -11.5959  -27.3346 H           1 MOL       0.0776
     59 H8         15.9424  -10.2215  -26.1813 H           1 MOL       0.1888
     60 H9         17.4262   -8.6959  -26.2241 H           1 MOL       0.0787
     61 H10        16.8815   -6.3247  -27.1725 H           1 MOL       0.0465
     62 H11        15.3338   -7.0034  -27.6282 H           1 MOL       0.0465
     63 H12        15.3954   -9.1374  -29.1507 H           1 MOL       0.0557
     64 H13        16.4629  -10.1077  -31.0852 H           1 MOL       0.0599
     65 H14        18.6882   -9.3878  -31.7484 H           1 MOL       0.0559
     66 H15        19.8423   -7.6787  -30.4634 H           1 MOL       0.0599
     67 H16        18.8087   -6.7142  -28.5131 H           1 MOL       0.0557
     68 H17        14.3436   -4.0341  -26.1304 H           1 MOL       0.1876
     69 H18        15.8012   -1.8210  -26.5920 H           1 MOL       0.0747
     70 H19        17.5898   -3.2092  -27.5462 H           1 MOL       0.0446
     71 H20        16.9302   -2.0281  -28.6622 H           1 MOL       0.0446
     72 H21        14.6625   -4.7136  -28.9763 H           1 MOL       0.0530
     73 H22        14.7046   -6.3176  -30.7594 H           1 MOL       0.0525
     74 H23        17.6571   -6.9377  -32.6212 H           1 MOL       0.2458
     75 H24        18.7088   -5.3258  -31.5817 H           1 MOL       0.0525
     76 H25        18.6640   -3.6770  -29.8413 H           1 MOL       0.0530
     77 H26        14.6506   -6.7154  -23.5117 H           1 MOL       0.0495
     78 H27        14.4933   -6.3283  -25.2146 H           1 MOL       0.0495
     79 H28        16.4769   -4.9158  -23.3825 H           1 MOL       0.0581
     80 H29        13.5374   -4.4990  -23.5005 H           1 MOL       0.0513
     81 H30        14.4010   -3.0249  -23.8777 H           1 MOL       0.0513
     82 H31        13.1258   -4.5741  -20.8892 H           1 MOL       0.0289
     83 H32        12.5787   -4.8178  -18.5889 H           1 MOL       0.0616
     84 H33        11.8365   -4.6682  -16.3116 H           1 MOL       0.0615
     85 H34        12.9660   -3.2018  -14.7412 H           1 MOL       0.0610
     86 H35        14.8681   -1.8844  -15.4755 H           1 MOL       0.0615
     87 H36        15.6323   -2.0087  -17.7456 H           1 MOL       0.0616
@<TRIPOS>BOND
     1     1     2  ar
     2     6     1  ar
     3     2     3  ar
     4     4     3  ar
     5     5     4  ar
     6     6     5  ar
     7     7     6   1
     8     8     7   1
     9     9     8   1
    10     9    10   2
    11    11     9  am
    12    12    11   1
    13    12    13   1
    14    20    12   1
    15    13    14   1
    16    14    15  ar
    17    14    19  ar
    18    15    16  ar
    19    16    17  ar
    20    18    17  ar
    21    19    18  ar
    22    20    21  ar
    23    20    22  ar
    24    36    20   1
    25    23    24   1
    26    38    23  am
    27    24    25   1
    28    24    28   1
    29    25    26  ar
    30    25    27  ar
    31    28    29   1
    32    29    30  ar
    33    29    35  ar
    34    30    31  ar
    35    31    32  ar
    36    32    33   1
    37    34    32  ar
    38    35    34  ar
    39    37    36   1
    40    37    38   1
    41    37    40   1
    42    38    39   2
    43    40    41   1
    44    41    42   2
    45    41    43   1
    46    42    45   1
    47    43    44   1
    48    44    45   2
    49    45    46   1
    50    46    47  ar
    51    46    51  ar
    52    47    48  ar
    53    48    49  ar
    54    49    50  ar
    55    50    51  ar
    56     1    52   1
    57     2    53   1
    58     3    54   1
    59     4    55   1
    60     5    56   1
    61     7    57   1
    62     7    58   1
    63    11    59   1
    64    12    60   1
    65    13    61   1
    66    13    62   1
    67    15    63   1
    68    16    64   1
    69    17    65   1
    70    18    66   1
    71    19    67   1
    72    23    68   1
    73    24    69   1
    74    28    70   1
    75    28    71   1
    76    30    72   1
    77    31    73   1
    78    33    74   1
    79    34    75   1
    80    35    76   1
    81    36    77   1
    82    36    78   1
    83    37    79   1
    84    40    80   1
    85    40    81   1
    86    42    82   1
    87    47    83   1
    88    48    84   1
    89    49    85   1
    90    50    86   1
    91    51    87   1
@<TRIPOS>SUBSTRUCTURE
     1  MOL      1

