@<TRIPOS>MOLECULE
2xy9_ligand_003
    87    91
SMALL
GAST_HUCK
****
This file was generated by PARSER (from files_GN.cpp)

@<TRIPOS>ATOM
      1 CAQ        14.9467    1.2672  -16.7768 C.ar        1 MOL      -0.0578
      2 CAK        14.1994    1.4404  -15.5965 C.ar        1 MOL      -0.0685
      3 CAH        14.8090    1.2638  -14.3421 C.ar        1 MOL      -0.0687
      4 CAL        16.1728    0.9331  -14.2652 C.ar        1 MOL      -0.0685
      5 CAR        16.9182    0.7550  -15.4452 C.ar        1 MOL      -0.0578
      6 CBP        16.3118    0.9092  -16.7125 C.ar        1 MOL      -0.0130
      7 CBB        17.0931    0.6426  -17.9442 C.3         1 MOL       0.1113
      8 OBJ        17.1345   -0.7726  -18.1669 O.3         1 MOL      -0.2506
      9 CBM        16.2628   -1.5182  -18.8921 C.2         1 MOL       0.3232
     10 OAB        15.1954   -0.9385  -19.4884 O.2         1 MOL      -0.3774
     11 NBI        16.4869   -2.8495  -18.9630 N.am        1 MOL      -0.2418
     12 CBX        15.6496   -3.8797  -19.5336 C.3         1 MOL       0.1176
     13 CBE        14.2585   -4.0196  -18.8155 C.3         1 MOL       0.0205
     14 CBQ        13.4405   -2.7802  -18.6645 C.ar        1 MOL      -0.0393
     15 CAS        12.7494   -2.2257  -19.7691 C.ar        1 MOL      -0.0602
     16 CAM        12.0802   -0.9962  -19.6496 C.ar        1 MOL      -0.0686
     17 CAI        11.9999   -0.3577  -18.4000 C.ar        1 MOL      -0.0687
     18 CAN        12.6281   -0.9277  -17.2794 C.ar        1 MOL      -0.0686
     19 CAT        13.3567   -2.1211  -17.4125 C.ar        1 MOL      -0.0602
     20 PBY        15.6501   -3.9451  -21.2133 P.3         1 MOL       0.0154
     21 OAG        16.6954   -3.0758  -21.6804 O.co2       1 MOL      -0.6174
     22 OAD        14.4838   -3.2686  -21.7897 O.co2       1 MOL      -0.6174
     23 N          13.5664   -5.1903  -24.8138 N.am        1 MOL      -0.2694
     24 CA         13.0976   -4.3580  -25.8871 C.3         1 MOL       0.1024
     25 C          11.6611   -4.6588  -26.0568 C.2         1 MOL       0.0619
     26 OXT        11.2543   -5.8272  -26.5982 O.co2       1 MOL      -0.5665
     27 O          10.7261   -3.7819  -25.6319 O.co2       1 MOL      -0.5665
     28 CB         13.8937   -4.5598  -27.2236 C.3         1 MOL       0.0108
     29 CG         14.9196   -3.5036  -27.4536 C.ar        1 MOL      -0.0499
     30 CD1        16.3003   -3.7577  -27.2792 C.ar        1 MOL      -0.0686
     31 CE1        17.2368   -2.7129  -27.3786 C.ar        1 MOL      -0.0398
     32 CZ         16.8120   -1.4018  -27.6686 C.ar        1 MOL       0.0805
     33 OH         17.6907   -0.3678  -27.6937 O.3         1 MOL      -0.3376
     34 CE2        15.4483   -1.1513  -27.9098 C.ar        1 MOL      -0.0398
     35 CD2        14.5102   -2.1947  -27.8041 C.ar        1 MOL      -0.0686
     36 CBF        15.9339   -5.4420  -21.9179 C.3         1 MOL       0.0375
     37 CBV        14.9529   -5.9842  -23.0167 C.3         1 MOL       0.0788
     38 CBN        14.6976   -5.0633  -24.1326 C.2         1 MOL       0.1848
     39 OAC        15.5082   -4.1941  -24.4271 O.2         1 MOL      -0.3964
     40 CBC        15.4490   -7.3738  -23.5719 C.3         1 MOL       0.0422
     41 CBS        14.5700   -8.5138  -23.2453 C.2         1 MOL       0.1411
     42 CBA        13.8988   -9.3410  -24.1387 C.2         1 MOL      -0.0269
     43 OBK        14.3598   -9.0187  -22.0088 O.3         1 MOL      -0.1670
     44 NBG        13.6091  -10.0819  -22.0987 N.2         1 MOL      -0.1519
     45 CBU        13.2946  -10.3437  -23.3858 C.2         1 MOL       0.0430
     46 CBT        12.5437  -11.4694  -23.8331 C.ar        1 MOL      -0.0150
     47 CAU        12.4135  -11.7851  -25.2099 C.ar        1 MOL      -0.0551
     48 CAO        11.7221  -12.9373  -25.6284 C.ar        1 MOL      -0.0621
     49 CAJ        11.1422  -13.7975  -24.6785 C.ar        1 MOL      -0.0626
     50 CAP        11.2496  -13.4949  -23.3099 C.ar        1 MOL      -0.0621
     51 CAV        11.9323  -12.3382  -22.8945 C.ar        1 MOL      -0.0551
     52 H1         14.4832    1.3756  -17.6848 H           1 MOL       0.0557
     53 H2         13.2061    1.6703  -15.6538 H           1 MOL       0.0599
     54 H3         14.2580    1.3592  -13.4879 H           1 MOL       0.0559
     55 H4         16.6206    0.8089  -13.3560 H           1 MOL       0.0599
     56 H5         17.9088    0.5096  -15.3768 H           1 MOL       0.0557
     57 H6         18.1144    1.0059  -17.8166 H           1 MOL       0.0776
     58 H7         16.6760    1.1771  -18.8059 H           1 MOL       0.0776
     59 H8         17.3372   -3.1578  -18.6040 H           1 MOL       0.1888
     60 H9         16.1948   -4.7849  -19.2504 H           1 MOL       0.0787
     61 H10        14.4524   -4.4204  -17.8149 H           1 MOL       0.0465
     62 H11        13.6515   -4.7790  -19.3171 H           1 MOL       0.0465
     63 H12        12.7424   -2.6976  -20.6668 H           1 MOL       0.0557
     64 H13        11.6552   -0.5751  -20.4738 H           1 MOL       0.0599
     65 H14        11.4794    0.5171  -18.3116 H           1 MOL       0.0559
     66 H15        12.5846   -0.4592  -16.3732 H           1 MOL       0.0599
     67 H16        13.8480   -2.4912  -16.5931 H           1 MOL       0.0557
     68 H17        12.9618   -5.8930  -24.5143 H           1 MOL       0.1876
     69 H18        13.1599   -3.3121  -25.5604 H           1 MOL       0.0747
     70 H19        13.2231   -4.5498  -28.0888 H           1 MOL       0.0446
     71 H20        14.3570   -5.5529  -27.2179 H           1 MOL       0.0446
     72 H21        16.6262   -4.6944  -27.0295 H           1 MOL       0.0530
     73 H22        18.2278   -2.9069  -27.2173 H           1 MOL       0.0525
     74 H23        18.4316   -0.6366  -27.1097 H           1 MOL       0.2458
     75 H24        15.1300   -0.2052  -28.1342 H           1 MOL       0.0525
     76 H25        13.5202   -1.9884  -27.9596 H           1 MOL       0.0530
     77 H26        15.9483   -6.1820  -21.1149 H           1 MOL       0.0495
     78 H27        16.9394   -5.4261  -22.3438 H           1 MOL       0.0495
     79 H28        13.9989   -6.1175  -22.4968 H           1 MOL       0.0581
     80 H29        16.4290   -7.6316  -23.1684 H           1 MOL       0.0513
     81 H30        15.5804   -7.3455  -24.6575 H           1 MOL       0.0513
     82 H31        13.8955   -9.2387  -25.1563 H           1 MOL       0.0289
     83 H32        12.8302  -11.1937  -25.9285 H           1 MOL       0.0616
     84 H33        11.6439  -13.1564  -26.6244 H           1 MOL       0.0615
     85 H34        10.6464  -14.6404  -24.9805 H           1 MOL       0.0610
     86 H35        10.8349  -14.1205  -22.6151 H           1 MOL       0.0615
     87 H36        11.9824  -12.1409  -21.8939 H           1 MOL       0.0616
@<TRIPOS>BOND
     1     1     2  ar
     2     6     1  ar
     3     2     3  ar
     4     4     3  ar
     5     5     4  ar
     6     6     5  ar
     7     7     6   1
     8     8     7   1
     9     9     8   1
    10     9    10   2
    11    11     9  am
    12    12    11   1
    13    12    13   1
    14    20    12   1
    15    13    14   1
    16    14    15  ar
    17    14    19  ar
    18    15    16  ar
    19    16    17  ar
    20    18    17  ar
    21    19    18  ar
    22    20    21  ar
    23    20    22  ar
    24    36    20   1
    25    23    24   1
    26    38    23  am
    27    24    25   1
    28    24    28   1
    29    25    26  ar
    30    25    27  ar
    31    28    29   1
    32    29    30  ar
    33    29    35  ar
    34    30    31  ar
    35    31    32  ar
    36    32    33   1
    37    34    32  ar
    38    35    34  ar
    39    37    36   1
    40    37    38   1
    41    37    40   1
    42    38    39   2
    43    40    41   1
    44    41    42   2
    45    41    43   1
    46    42    45   1
    47    43    44   1
    48    44    45   2
    49    45    46   1
    50    46    47  ar
    51    46    51  ar
    52    47    48  ar
    53    48    49  ar
    54    49    50  ar
    55    50    51  ar
    56     1    52   1
    57     2    53   1
    58     3    54   1
    59     4    55   1
    60     5    56   1
    61     7    57   1
    62     7    58   1
    63    11    59   1
    64    12    60   1
    65    13    61   1
    66    13    62   1
    67    15    63   1
    68    16    64   1
    69    17    65   1
    70    18    66   1
    71    19    67   1
    72    23    68   1
    73    24    69   1
    74    28    70   1
    75    28    71   1
    76    30    72   1
    77    31    73   1
    78    33    74   1
    79    34    75   1
    80    35    76   1
    81    36    77   1
    82    36    78   1
    83    37    79   1
    84    40    80   1
    85    40    81   1
    86    42    82   1
    87    47    83   1
    88    48    84   1
    89    49    85   1
    90    50    86   1
    91    51    87   1
@<TRIPOS>SUBSTRUCTURE
     1  MOL      1

