@<TRIPOS>MOLECULE
2xy9_ligand_036
    87    91
SMALL
GAST_HUCK
****
This file was generated by PARSER (from files_GN.cpp)

@<TRIPOS>ATOM
      1 CAQ        11.7815    3.6356  -15.9478 C.ar        1 MOL      -0.0578
      2 CAK        11.8542    4.8591  -16.6417 C.ar        1 MOL      -0.0685
      3 CAH        12.8705    5.0798  -17.5891 C.ar        1 MOL      -0.0687
      4 CAL        13.8205    4.0751  -17.8439 C.ar        1 MOL      -0.0685
      5 CAR        13.7468    2.8477  -17.1563 C.ar        1 MOL      -0.0578
      6 CBP        12.7303    2.6150  -16.2004 C.ar        1 MOL      -0.0130
      7 CBB        12.6784    1.3211  -15.4806 C.3         1 MOL       0.1113
      8 OBJ        12.2943    0.2657  -16.3663 O.3         1 MOL      -0.2506
      9 CBM        12.9801   -0.8694  -16.6589 C.2         1 MOL       0.3232
     10 OAB        14.1943   -1.1045  -16.1173 O.2         1 MOL      -0.3774
     11 NBI        12.2960   -1.8280  -17.3309 N.am        1 MOL      -0.2418
     12 CBX        12.6746   -3.2142  -17.3897 C.3         1 MOL       0.1176
     13 CBE        12.3718   -4.0162  -16.0619 C.3         1 MOL       0.0205
     14 CBQ        12.3144   -3.2425  -14.7851 C.ar        1 MOL      -0.0393
     15 CAS        11.2321   -2.3613  -14.5450 C.ar        1 MOL      -0.0602
     16 CAM        11.1605   -1.6164  -13.3515 C.ar        1 MOL      -0.0686
     17 CAI        12.1594   -1.7534  -12.3748 C.ar        1 MOL      -0.0687
     18 CAN        13.2350   -2.6363  -12.5921 C.ar        1 MOL      -0.0686
     19 CAT        13.3074   -3.3785  -13.7853 C.ar        1 MOL      -0.0602
     20 PBY        11.9179   -3.9162  -18.7192 P.3         1 MOL       0.0154
     21 OAG        10.5170   -3.5978  -18.5946 O.co2       1 MOL      -0.6174
     22 OAD        11.9316   -5.3521  -18.5946 O.co2       1 MOL      -0.6174
     23 N          12.9855   -4.9012  -23.1593 N.am        1 MOL      -0.2694
     24 CA         12.8814   -4.8083  -24.5927 C.3         1 MOL       0.1024
     25 C          11.9781   -5.8739  -25.0892 C.2         1 MOL       0.0619
     26 OXT        12.1942   -7.1710  -24.7793 O.co2       1 MOL      -0.5665
     27 O          10.9577   -5.5881  -25.9332 O.co2       1 MOL      -0.5665
     28 CB         14.2864   -4.8913  -25.2602 C.3         1 MOL       0.0108
     29 CG         14.2474   -4.6252  -26.7233 C.ar        1 MOL      -0.0499
     30 CD1        14.0481   -5.6761  -27.6516 C.ar        1 MOL      -0.0686
     31 CE1        14.0111   -5.4143  -29.0348 C.ar        1 MOL      -0.0398
     32 CZ         14.1762   -4.0989  -29.5087 C.ar        1 MOL       0.0805
     33 OH         14.1730   -3.8222  -30.8346 O.3         1 MOL      -0.3376
     34 CE2        14.3659   -3.0458  -28.5939 C.ar        1 MOL      -0.0398
     35 CD2        14.3954   -3.3068  -27.2108 C.ar        1 MOL      -0.0686
     36 CBF        12.3540   -3.4958  -20.2782 C.3         1 MOL       0.0375
     37 CBV        13.6048   -4.2274  -20.8920 C.3         1 MOL       0.0788
     38 CBN        13.6522   -4.0700  -22.3557 C.2         1 MOL       0.1848
     39 OAC        14.2284   -3.1019  -22.8387 O.2         1 MOL      -0.3964
     40 CBC        14.9649   -3.9008  -20.1930 C.3         1 MOL       0.0422
     41 CBS        15.2518   -2.4691  -19.9275 C.2         1 MOL       0.1411
     42 CBA        15.8409   -1.9319  -18.7906 C.2         1 MOL      -0.0269
     43 OBK        15.0155   -1.4371  -20.7664 O.3         1 MOL      -0.1670
     44 NBG        15.4180   -0.3269  -20.2055 N.2         1 MOL      -0.1519
     45 CBU        15.9379   -0.5569  -18.9845 C.2         1 MOL       0.0430
     46 CBT        16.4882    0.4426  -18.1274 C.ar        1 MOL      -0.0150
     47 CAU        16.8519    0.1692  -16.7833 C.ar        1 MOL      -0.0551
     48 CAO        17.3362    1.1885  -15.9427 C.ar        1 MOL      -0.0621
     49 CAJ        17.4823    2.4994  -16.4303 C.ar        1 MOL      -0.0626
     50 CAP        17.1428    2.7869  -17.7627 C.ar        1 MOL      -0.0621
     51 CAV        16.6388    1.7718  -18.5937 C.ar        1 MOL      -0.0551
     52 H1         11.0292    3.4950  -15.2611 H           1 MOL       0.0557
     53 H2         11.1621    5.5887  -16.4558 H           1 MOL       0.0599
     54 H3         12.9168    5.9700  -18.0889 H           1 MOL       0.0559
     55 H4         14.5608    4.2317  -18.5321 H           1 MOL       0.0599
     56 H5         14.4363    2.1213  -17.3576 H           1 MOL       0.0557
     57 H6         11.9241    1.3432  -14.6908 H           1 MOL       0.0776
     58 H7         13.6431    1.1329  -15.0022 H           1 MOL       0.0776
     59 H8         11.4105   -1.5879  -17.6428 H           1 MOL       0.1888
     60 H9         13.7514   -3.2702  -17.5755 H           1 MOL       0.0787
     61 H10        13.1269   -4.8064  -15.9701 H           1 MOL       0.0465
     62 H11        11.4165   -4.5468  -16.1317 H           1 MOL       0.0465
     63 H12        10.4976   -2.2429  -15.2458 H           1 MOL       0.0557
     64 H13        10.3820   -0.9701  -13.1969 H           1 MOL       0.0599
     65 H14        12.1121   -1.2064  -11.5108 H           1 MOL       0.0559
     66 H15        13.9679   -2.7270  -11.8825 H           1 MOL       0.0599
     67 H16        14.1037   -4.0000  -13.9302 H           1 MOL       0.0557
     68 H17        12.4880   -5.6161  -22.7303 H           1 MOL       0.1876
     69 H18        12.4148   -3.8471  -24.8368 H           1 MOL       0.0747
     70 H19        14.7332   -5.8704  -25.0584 H           1 MOL       0.0446
     71 H20        14.9466   -4.1539  -24.7963 H           1 MOL       0.0446
     72 H21        13.9226   -6.6385  -27.3274 H           1 MOL       0.0530
     73 H22        13.8759   -6.1873  -29.6922 H           1 MOL       0.0525
     74 H23        14.1252   -4.6840  -31.2986 H           1 MOL       0.2458
     75 H24        14.4859   -2.0885  -28.9319 H           1 MOL       0.0525
     76 H25        14.5289   -2.5243  -26.5621 H           1 MOL       0.0530
     77 H26        12.4826   -2.4118  -20.3186 H           1 MOL       0.0495
     78 H27        11.4887   -3.7392  -20.9033 H           1 MOL       0.0495
     79 H28        13.4602   -5.3016  -20.7243 H           1 MOL       0.0581
     80 H29        15.7809   -4.2978  -20.8023 H           1 MOL       0.0513
     81 H30        15.0011   -4.4362  -19.2408 H           1 MOL       0.0513
     82 H31        16.1638   -2.4623  -17.9783 H           1 MOL       0.0289
     83 H32        16.7359   -0.7623  -16.3851 H           1 MOL       0.0616
     84 H33        17.5575    0.9827  -14.9650 H           1 MOL       0.0615
     85 H34        17.8277    3.2482  -15.8212 H           1 MOL       0.0610
     86 H35        17.2372    3.7395  -18.1189 H           1 MOL       0.0615
     87 H36        16.3795    2.0289  -19.5484 H           1 MOL       0.0616
@<TRIPOS>BOND
     1     1     2  ar
     2     6     1  ar
     3     2     3  ar
     4     4     3  ar
     5     5     4  ar
     6     6     5  ar
     7     7     6   1
     8     8     7   1
     9     9     8   1
    10     9    10   2
    11    11     9  am
    12    12    11   1
    13    12    13   1
    14    20    12   1
    15    13    14   1
    16    14    15  ar
    17    14    19  ar
    18    15    16  ar
    19    16    17  ar
    20    18    17  ar
    21    19    18  ar
    22    20    21  ar
    23    20    22  ar
    24    36    20   1
    25    23    24   1
    26    38    23  am
    27    24    25   1
    28    24    28   1
    29    25    26  ar
    30    25    27  ar
    31    28    29   1
    32    29    30  ar
    33    29    35  ar
    34    30    31  ar
    35    31    32  ar
    36    32    33   1
    37    34    32  ar
    38    35    34  ar
    39    37    36   1
    40    37    38   1
    41    37    40   1
    42    38    39   2
    43    40    41   1
    44    41    42   2
    45    41    43   1
    46    42    45   1
    47    43    44   1
    48    44    45   2
    49    45    46   1
    50    46    47  ar
    51    46    51  ar
    52    47    48  ar
    53    48    49  ar
    54    49    50  ar
    55    50    51  ar
    56     1    52   1
    57     2    53   1
    58     3    54   1
    59     4    55   1
    60     5    56   1
    61     7    57   1
    62     7    58   1
    63    11    59   1
    64    12    60   1
    65    13    61   1
    66    13    62   1
    67    15    63   1
    68    16    64   1
    69    17    65   1
    70    18    66   1
    71    19    67   1
    72    23    68   1
    73    24    69   1
    74    28    70   1
    75    28    71   1
    76    30    72   1
    77    31    73   1
    78    33    74   1
    79    34    75   1
    80    35    76   1
    81    36    77   1
    82    36    78   1
    83    37    79   1
    84    40    80   1
    85    40    81   1
    86    42    82   1
    87    47    83   1
    88    48    84   1
    89    49    85   1
    90    50    86   1
    91    51    87   1
@<TRIPOS>SUBSTRUCTURE
     1  MOL      1

