@<TRIPOS>MOLECULE
2xy9_ligand_016
    87    91
SMALL
GAST_HUCK
****
This file was generated by PARSER (from files_GN.cpp)

@<TRIPOS>ATOM
      1 CAQ        19.0410   -6.6359  -27.0451 C.ar        1 MOL      -0.0578
      2 CAK        20.2375   -5.9153  -26.8906 C.ar        1 MOL      -0.0685
      3 CAH        20.6433   -5.0027  -27.8759 C.ar        1 MOL      -0.0687
      4 CAL        19.8493   -4.8087  -29.0221 C.ar        1 MOL      -0.0685
      5 CAR        18.6610   -5.5452  -29.1855 C.ar        1 MOL      -0.0578
      6 CBP        18.2414   -6.4744  -28.2047 C.ar        1 MOL      -0.0130
      7 CBB        16.9904   -7.2477  -28.4232 C.3         1 MOL       0.1113
      8 OBJ        16.7725   -8.2514  -27.4190 O.3         1 MOL      -0.2506
      9 CBM        15.6729   -8.4485  -26.6482 C.2         1 MOL       0.3232
     10 OAB        14.5475   -7.7184  -26.8428 O.2         1 MOL      -0.3774
     11 NBI        15.7950   -9.3247  -25.6243 N.am        1 MOL      -0.2418
     12 CBX        14.8462   -9.5382  -24.5698 C.3         1 MOL       0.1176
     13 CBE        14.7857  -11.0490  -24.1737 C.3         1 MOL       0.0205
     14 CBQ        15.7003  -11.5379  -23.0963 C.ar        1 MOL      -0.0393
     15 CAS        15.2639  -11.5930  -21.7493 C.ar        1 MOL      -0.0602
     16 CAM        16.1096  -12.0640  -20.7274 C.ar        1 MOL      -0.0686
     17 CAI        17.4082  -12.4937  -21.0381 C.ar        1 MOL      -0.0687
     18 CAN        17.8610  -12.4438  -22.3699 C.ar        1 MOL      -0.0686
     19 CAT        17.0154  -11.9684  -23.3909 C.ar        1 MOL      -0.0602
     20 PBY        15.1809   -8.4655  -23.3241 P.3         1 MOL       0.0154
     21 OAG        16.6135   -8.3823  -23.1473 O.co2       1 MOL      -0.6174
     22 OAD        14.7304   -8.9779  -22.0438 O.co2       1 MOL      -0.6174
     23 N          14.2214   -5.1022  -26.1091 N.am        1 MOL      -0.2694
     24 CA         13.2693   -4.4441  -26.9633 C.3         1 MOL       0.1024
     25 C          12.1430   -5.3796  -27.1886 C.2         1 MOL       0.0619
     26 OXT        11.4783   -5.3879  -28.3655 O.co2       1 MOL      -0.5665
     27 O          11.4677   -5.8959  -26.1359 O.co2       1 MOL      -0.5665
     28 CB         13.9855   -4.0508  -28.2923 C.3         1 MOL       0.0108
     29 CG         15.0543   -3.0407  -28.0845 C.ar        1 MOL      -0.0499
     30 CD1        16.3683   -3.4427  -27.7540 C.ar        1 MOL      -0.0686
     31 CE1        17.3737   -2.4876  -27.5259 C.ar        1 MOL      -0.0398
     32 CZ         17.0773   -1.1126  -27.6129 C.ar        1 MOL       0.0805
     33 OH         18.0330   -0.1772  -27.3952 O.3         1 MOL      -0.3376
     34 CE2        15.7720   -0.7004  -27.9393 C.ar        1 MOL      -0.0398
     35 CD2        14.7684   -1.6584  -28.1744 C.ar        1 MOL      -0.0686
     36 CBF        14.4814   -6.9376  -23.4836 C.3         1 MOL       0.0375
     37 CBV        15.3726   -5.7916  -24.1225 C.3         1 MOL       0.0788
     38 CBN        14.5127   -4.8444  -24.8408 C.2         1 MOL       0.1848
     39 OAC        13.9050   -3.9679  -24.2230 O.2         1 MOL      -0.3964
     40 CBC        16.3906   -5.0854  -23.1437 C.3         1 MOL       0.0422
     41 CBS        15.8920   -4.3366  -21.9570 C.2         1 MOL       0.1411
     42 CBA        15.0621   -4.7578  -20.9188 C.2         1 MOL      -0.0269
     43 OBK        16.3070   -3.0826  -21.6179 O.3         1 MOL      -0.1670
     44 NBG        15.7670   -2.7081  -20.4929 N.2         1 MOL      -0.1519
     45 CBU        14.9663   -3.7021  -20.0243 C.2         1 MOL       0.0430
     46 CBT        14.2159   -3.6800  -18.8193 C.ar        1 MOL      -0.0150
     47 CAU        13.0476   -4.4719  -18.6565 C.ar        1 MOL      -0.0551
     48 CAO        12.2840   -4.3794  -17.4775 C.ar        1 MOL      -0.0621
     49 CAJ        12.6860   -3.5167  -16.4426 C.ar        1 MOL      -0.0626
     50 CAP        13.8583   -2.7541  -16.5798 C.ar        1 MOL      -0.0621
     51 CAV        14.6160   -2.8386  -17.7646 C.ar        1 MOL      -0.0551
     52 H1         18.7662   -7.2778  -26.3026 H           1 MOL       0.0557
     53 H2         20.8143   -6.0618  -26.0596 H           1 MOL       0.0599
     54 H3         21.5158   -4.4828  -27.7619 H           1 MOL       0.0559
     55 H4         20.1405   -4.1377  -29.7359 H           1 MOL       0.0599
     56 H5         18.0975   -5.3925  -30.0267 H           1 MOL       0.0557
     57 H6         17.0474   -7.7528  -29.3891 H           1 MOL       0.0776
     58 H7         16.1510   -6.5483  -28.4541 H           1 MOL       0.0776
     59 H8         16.6503   -9.7749  -25.5362 H           1 MOL       0.1888
     60 H9         13.8417   -9.2849  -24.9299 H           1 MOL       0.0787
     61 H10        14.9649  -11.6533  -25.0687 H           1 MOL       0.0465
     62 H11        13.7533  -11.2652  -23.8815 H           1 MOL       0.0465
     63 H12        14.3259  -11.2782  -21.4941 H           1 MOL       0.0557
     64 H13        15.7738  -12.0935  -19.7604 H           1 MOL       0.0599
     65 H14        18.0152  -12.8586  -20.3006 H           1 MOL       0.0559
     66 H15        18.8043  -12.7590  -22.5947 H           1 MOL       0.0599
     67 H16        17.3587  -11.9603  -24.3555 H           1 MOL       0.0557
     68 H17        14.7048   -5.8429  -26.5233 H           1 MOL       0.1876
     69 H18        12.8593   -3.5406  -26.4962 H           1 MOL       0.0747
     70 H19        13.2588   -3.6403  -28.9945 H           1 MOL       0.0446
     71 H20        14.4045   -4.9431  -28.7705 H           1 MOL       0.0446
     72 H21        16.5977   -4.4352  -27.6686 H           1 MOL       0.0530
     73 H22        18.3181   -2.7982  -27.2944 H           1 MOL       0.0525
     74 H23        18.7172   -0.6267  -26.8537 H           1 MOL       0.2458
     75 H24        15.5463    0.2955  -27.9995 H           1 MOL       0.0525
     76 H25        13.8230   -1.3409  -28.4044 H           1 MOL       0.0530
     77 H26        14.1468   -6.6028  -22.5129 H           1 MOL       0.0495
     78 H27        13.5661   -7.0883  -24.1028 H           1 MOL       0.0495
     79 H28        16.0122   -6.2589  -24.8799 H           1 MOL       0.0581
     80 H29        16.9766   -4.3835  -23.7442 H           1 MOL       0.0513
     81 H30        17.0985   -5.8289  -22.7763 H           1 MOL       0.0513
     82 H31        14.6486   -5.6963  -20.8136 H           1 MOL       0.0289
     83 H32        12.7280   -5.1051  -19.3951 H           1 MOL       0.0616
     84 H33        11.4261   -4.9325  -17.3767 H           1 MOL       0.0615
     85 H34        12.1232   -3.4375  -15.5910 H           1 MOL       0.0610
     86 H35        14.1605   -2.1368  -15.8215 H           1 MOL       0.0615
     87 H36        15.4733   -2.2856  -17.8375 H           1 MOL       0.0616
@<TRIPOS>BOND
     1     1     2  ar
     2     6     1  ar
     3     2     3  ar
     4     4     3  ar
     5     5     4  ar
     6     6     5  ar
     7     7     6   1
     8     8     7   1
     9     9     8   1
    10     9    10   2
    11    11     9  am
    12    12    11   1
    13    12    13   1
    14    20    12   1
    15    13    14   1
    16    14    15  ar
    17    14    19  ar
    18    15    16  ar
    19    16    17  ar
    20    18    17  ar
    21    19    18  ar
    22    20    21  ar
    23    20    22  ar
    24    36    20   1
    25    23    24   1
    26    38    23  am
    27    24    25   1
    28    24    28   1
    29    25    26  ar
    30    25    27  ar
    31    28    29   1
    32    29    30  ar
    33    29    35  ar
    34    30    31  ar
    35    31    32  ar
    36    32    33   1
    37    34    32  ar
    38    35    34  ar
    39    37    36   1
    40    37    38   1
    41    37    40   1
    42    38    39   2
    43    40    41   1
    44    41    42   2
    45    41    43   1
    46    42    45   1
    47    43    44   1
    48    44    45   2
    49    45    46   1
    50    46    47  ar
    51    46    51  ar
    52    47    48  ar
    53    48    49  ar
    54    49    50  ar
    55    50    51  ar
    56     1    52   1
    57     2    53   1
    58     3    54   1
    59     4    55   1
    60     5    56   1
    61     7    57   1
    62     7    58   1
    63    11    59   1
    64    12    60   1
    65    13    61   1
    66    13    62   1
    67    15    63   1
    68    16    64   1
    69    17    65   1
    70    18    66   1
    71    19    67   1
    72    23    68   1
    73    24    69   1
    74    28    70   1
    75    28    71   1
    76    30    72   1
    77    31    73   1
    78    33    74   1
    79    34    75   1
    80    35    76   1
    81    36    77   1
    82    36    78   1
    83    37    79   1
    84    40    80   1
    85    40    81   1
    86    42    82   1
    87    47    83   1
    88    48    84   1
    89    49    85   1
    90    50    86   1
    91    51    87   1
@<TRIPOS>SUBSTRUCTURE
     1  MOL      1

