@<TRIPOS>MOLECULE
2xy9_ligand_037
    87    91
SMALL
GAST_HUCK
****
This file was generated by PARSER (from files_GN.cpp)

@<TRIPOS>ATOM
      1 CAQ        11.4901   -5.4260  -12.8788 C.ar        1 MOL      -0.0578
      2 CAK        10.8817   -4.7744  -11.7884 C.ar        1 MOL      -0.0685
      3 CAH         9.5996   -4.2104  -11.9296 C.ar        1 MOL      -0.0687
      4 CAL         8.9244   -4.3028  -13.1618 C.ar        1 MOL      -0.0685
      5 CAR         9.5266   -4.9657  -14.2452 C.ar        1 MOL      -0.0578
      6 CBP        10.8168   -5.5344  -14.1209 C.ar        1 MOL      -0.0130
      7 CBB        11.4239   -6.2475  -15.2735 C.3         1 MOL       0.1113
      8 OBJ        11.2764   -5.4768  -16.4741 O.3         1 MOL      -0.2506
      9 CBM        12.0707   -4.4814  -16.9390 C.2         1 MOL       0.3232
     10 OAB        13.2046   -4.1361  -16.2862 O.2         1 MOL      -0.3774
     11 NBI        11.6302   -3.8280  -18.0357 N.am        1 MOL      -0.2418
     12 CBX        12.1914   -2.6636  -18.6666 C.3         1 MOL       0.1176
     13 CBE        12.4122   -1.4603  -17.6854 C.3         1 MOL       0.0205
     14 CBQ        11.1546   -0.9448  -17.0692 C.ar        1 MOL      -0.0393
     15 CAS        10.5807    0.2683  -17.5243 C.ar        1 MOL      -0.0602
     16 CAM         9.4051    0.7746  -16.9381 C.ar        1 MOL      -0.0686
     17 CAI         8.7897    0.0833  -15.8818 C.ar        1 MOL      -0.0687
     18 CAN         9.3557   -1.1139  -15.4106 C.ar        1 MOL      -0.0686
     19 CAT        10.5308   -1.6254  -15.9948 C.ar        1 MOL      -0.0602
     20 PBY        13.5125   -3.0405  -19.6330 P.3         1 MOL       0.0154
     21 OAG        14.7261   -3.2864  -18.8838 O.co2       1 MOL      -0.6174
     22 OAD        13.7399   -1.8047  -20.3652 O.co2       1 MOL      -0.6174
     23 N          13.1892   -4.4628  -23.8913 N.am        1 MOL      -0.2694
     24 CA         12.3855   -4.6152  -25.0798 C.3         1 MOL       0.1024
     25 C          11.9166   -5.9379  -25.5495 C.2         1 MOL       0.0619
     26 OXT        12.2622   -7.1096  -24.9449 O.co2       1 MOL      -0.5665
     27 O          10.9308   -5.9864  -26.4662 O.co2       1 MOL      -0.5665
     28 CB         12.9543   -3.7192  -26.2274 C.3         1 MOL       0.0108
     29 CG         13.5954   -4.2725  -27.4583 C.ar        1 MOL      -0.0499
     30 CD1        13.9044   -5.6379  -27.6735 C.ar        1 MOL      -0.0686
     31 CE1        14.3647   -6.0867  -28.9314 C.ar        1 MOL      -0.0398
     32 CZ         14.5481   -5.1763  -29.9910 C.ar        1 MOL       0.0805
     33 OH         14.9437   -5.6391  -31.2091 O.3         1 MOL      -0.3376
     34 CE2        14.3220   -3.8043  -29.7626 C.ar        1 MOL      -0.0398
     35 CD2        13.8683   -3.3611  -28.5088 C.ar        1 MOL      -0.0686
     36 CBF        13.2056   -4.1904  -20.8257 C.3         1 MOL       0.0375
     37 CBV        14.3226   -4.7478  -21.7934 C.3         1 MOL       0.0788
     38 CBN        13.6975   -5.3115  -23.0058 C.2         1 MOL       0.1848
     39 OAC        13.7250   -6.5222  -23.2080 O.2         1 MOL      -0.3964
     40 CBC        15.4983   -3.7718  -22.1481 C.3         1 MOL       0.0422
     41 CBS        16.0111   -3.7384  -23.5400 C.2         1 MOL       0.1411
     42 CBA        16.8852   -4.5795  -24.2187 C.2         1 MOL      -0.0269
     43 OBK        15.5955   -2.7924  -24.4149 O.3         1 MOL      -0.1670
     44 NBG        16.1800   -2.9904  -25.5667 N.2         1 MOL      -0.1519
     45 CBU        17.0036   -4.0642  -25.5092 C.2         1 MOL       0.0430
     46 CBT        17.8143   -4.4591  -26.6075 C.ar        1 MOL      -0.0150
     47 CAU        18.9114   -5.3432  -26.4531 C.ar        1 MOL      -0.0551
     48 CAO        19.7518   -5.6499  -27.5423 C.ar        1 MOL      -0.0621
     49 CAJ        19.5017   -5.0852  -28.8088 C.ar        1 MOL      -0.0626
     50 CAP        18.4124   -4.2195  -28.9838 C.ar        1 MOL      -0.0621
     51 CAV        17.5806   -3.9089  -27.8941 C.ar        1 MOL      -0.0551
     52 H1         12.4216   -5.8296  -12.7563 H           1 MOL       0.0557
     53 H2         11.3678   -4.7105  -10.8913 H           1 MOL       0.0599
     54 H3          9.1579   -3.7359  -11.1372 H           1 MOL       0.0559
     55 H4          7.9928   -3.8933  -13.2642 H           1 MOL       0.0599
     56 H5          9.0156   -5.0315  -15.1311 H           1 MOL       0.0557
     57 H6         10.8861   -7.1870  -15.4165 H           1 MOL       0.0776
     58 H7         12.4763   -6.4942  -15.1062 H           1 MOL       0.0776
     59 H8         10.7788   -4.1229  -18.3896 H           1 MOL       0.1888
     60 H9         11.4211   -2.3405  -19.3770 H           1 MOL       0.0787
     61 H10        12.8906   -0.6344  -18.2221 H           1 MOL       0.0465
     62 H11        13.1177   -1.7362  -16.9007 H           1 MOL       0.0465
     63 H12        11.0052    0.7810  -18.2962 H           1 MOL       0.0557
     64 H13         9.0017    1.6494  -17.2842 H           1 MOL       0.0599
     65 H14         7.9421    0.4524  -15.4564 H           1 MOL       0.0559
     66 H15         8.9155   -1.6139  -14.6340 H           1 MOL       0.0599
     67 H16        10.9287   -2.4897  -15.6297 H           1 MOL       0.0557
     68 H17        13.3377   -3.5261  -23.6597 H           1 MOL       0.1876
     69 H18        11.4729   -4.1067  -24.7774 H           1 MOL       0.0747
     70 H19        13.6790   -2.9961  -25.8085 H           1 MOL       0.0446
     71 H20        12.1183   -3.0907  -26.5776 H           1 MOL       0.0446
     72 H21        13.7908   -6.3230  -26.9322 H           1 MOL       0.0530
     73 H22        14.5646   -7.0809  -29.0867 H           1 MOL       0.0525
     74 H23        14.9146   -4.8602  -31.8142 H           1 MOL       0.2458
     75 H24        14.4768   -3.1288  -30.5165 H           1 MOL       0.0525
     76 H25        13.7055   -2.3633  -28.3865 H           1 MOL       0.0530
     77 H26        12.3874   -3.7577  -21.4107 H           1 MOL       0.0495
     78 H27        12.7833   -5.0532  -20.2929 H           1 MOL       0.0495
     79 H28        14.7995   -5.5922  -21.2599 H           1 MOL       0.0581
     80 H29        16.3482   -3.9499  -21.4786 H           1 MOL       0.0513
     81 H30        15.1781   -2.7474  -21.9718 H           1 MOL       0.0513
     82 H31        17.3556   -5.4020  -23.8270 H           1 MOL       0.0289
     83 H32        19.1343   -5.7495  -25.5382 H           1 MOL       0.0616
     84 H33        20.5519   -6.2699  -27.4130 H           1 MOL       0.0615
     85 H34        20.1115   -5.2970  -29.5959 H           1 MOL       0.0610
     86 H35        18.2287   -3.8027  -29.8995 H           1 MOL       0.0615
     87 H36        16.8014   -3.2645  -28.0545 H           1 MOL       0.0616
@<TRIPOS>BOND
     1     1     2  ar
     2     6     1  ar
     3     2     3  ar
     4     4     3  ar
     5     5     4  ar
     6     6     5  ar
     7     7     6   1
     8     8     7   1
     9     9     8   1
    10     9    10   2
    11    11     9  am
    12    12    11   1
    13    12    13   1
    14    20    12   1
    15    13    14   1
    16    14    15  ar
    17    14    19  ar
    18    15    16  ar
    19    16    17  ar
    20    18    17  ar
    21    19    18  ar
    22    20    21  ar
    23    20    22  ar
    24    36    20   1
    25    23    24   1
    26    38    23  am
    27    24    25   1
    28    24    28   1
    29    25    26  ar
    30    25    27  ar
    31    28    29   1
    32    29    30  ar
    33    29    35  ar
    34    30    31  ar
    35    31    32  ar
    36    32    33   1
    37    34    32  ar
    38    35    34  ar
    39    37    36   1
    40    37    38   1
    41    37    40   1
    42    38    39   2
    43    40    41   1
    44    41    42   2
    45    41    43   1
    46    42    45   1
    47    43    44   1
    48    44    45   2
    49    45    46   1
    50    46    47  ar
    51    46    51  ar
    52    47    48  ar
    53    48    49  ar
    54    49    50  ar
    55    50    51  ar
    56     1    52   1
    57     2    53   1
    58     3    54   1
    59     4    55   1
    60     5    56   1
    61     7    57   1
    62     7    58   1
    63    11    59   1
    64    12    60   1
    65    13    61   1
    66    13    62   1
    67    15    63   1
    68    16    64   1
    69    17    65   1
    70    18    66   1
    71    19    67   1
    72    23    68   1
    73    24    69   1
    74    28    70   1
    75    28    71   1
    76    30    72   1
    77    31    73   1
    78    33    74   1
    79    34    75   1
    80    35    76   1
    81    36    77   1
    82    36    78   1
    83    37    79   1
    84    40    80   1
    85    40    81   1
    86    42    82   1
    87    47    83   1
    88    48    84   1
    89    49    85   1
    90    50    86   1
    91    51    87   1
@<TRIPOS>SUBSTRUCTURE
     1  MOL      1

