@<TRIPOS>MOLECULE
2xy9_ligand_068
    87    91
SMALL
GAST_HUCK
****
This file was generated by PARSER (from files_GN.cpp)

@<TRIPOS>ATOM
      1 CAQ        15.6210   -9.0530  -29.5184 C.ar        1 MOL      -0.0578
      2 CAK        16.6404   -8.6840  -30.4153 C.ar        1 MOL      -0.0685
      3 CAH        17.0384   -9.5759  -31.4283 C.ar        1 MOL      -0.0687
      4 CAL        16.4190  -10.8350  -31.5383 C.ar        1 MOL      -0.0685
      5 CAR        15.3987  -11.2011  -30.6376 C.ar        1 MOL      -0.0578
      6 CBP        14.9914  -10.3155  -29.6128 C.ar        1 MOL      -0.0130
      7 CBB        13.9048  -10.6585  -28.6677 C.3         1 MOL       0.1113
      8 OBJ        14.4073  -10.6718  -27.3238 O.3         1 MOL      -0.2506
      9 CBM        14.0026   -9.9005  -26.2797 C.2         1 MOL       0.3232
     10 OAB        13.0560   -8.9441  -26.4395 O.2         1 MOL      -0.3774
     11 NBI        14.6019  -10.1261  -25.0829 N.am        1 MOL      -0.2418
     12 CBX        14.2765   -9.4839  -23.8306 C.3         1 MOL       0.1176
     13 CBE        13.9836  -10.5613  -22.7333 C.3         1 MOL       0.0205
     14 CBQ        13.1260  -11.6818  -23.2194 C.ar        1 MOL      -0.0393
     15 CAS        13.7304  -12.8478  -23.7525 C.ar        1 MOL      -0.0602
     16 CAM        12.9445  -13.8917  -24.2684 C.ar        1 MOL      -0.0686
     17 CAI        11.5434  -13.7875  -24.2573 C.ar        1 MOL      -0.0687
     18 CAN        10.9294  -12.6351  -23.7354 C.ar        1 MOL      -0.0686
     19 CAT        11.7149  -11.5808  -23.2334 C.ar        1 MOL      -0.0602
     20 PBY        15.4860   -8.3714  -23.4268 P.3         1 MOL       0.0154
     21 OAG        16.4145   -8.2819  -24.5324 O.co2       1 MOL      -0.6174
     22 OAD        16.3407   -8.8587  -22.3701 O.co2       1 MOL      -0.6174
     23 N          15.4207   -5.5613  -25.5756 N.am        1 MOL      -0.2694
     24 CA         15.6519   -5.7019  -26.9876 C.3         1 MOL       0.1024
     25 C          17.0512   -5.8975  -27.4413 C.2         1 MOL       0.0619
     26 OXT        17.6708   -5.0433  -28.2896 O.co2       1 MOL      -0.5665
     27 O          17.6985   -7.0422  -27.1247 O.co2       1 MOL      -0.5665
     28 CB         14.8619   -4.6318  -27.8126 C.3         1 MOL       0.0108
     29 CG         15.1716   -3.1737  -27.7014 C.ar        1 MOL      -0.0499
     30 CD1        15.8957   -2.5852  -26.6334 C.ar        1 MOL      -0.0686
     31 CE1        16.0677   -1.1925  -26.5374 C.ar        1 MOL      -0.0398
     32 CZ         15.5433   -0.3468  -27.5289 C.ar        1 MOL       0.0805
     33 OH         15.7289    0.9885  -27.4325 O.3         1 MOL      -0.3376
     34 CE2        14.8278   -0.9015  -28.6071 C.ar        1 MOL      -0.0398
     35 CD2        14.6384   -2.2942  -28.6806 C.ar        1 MOL      -0.0686
     36 CBF        14.9127   -6.8599  -22.9608 C.3         1 MOL       0.0375
     37 CBV        15.7902   -5.5750  -23.1923 C.3         1 MOL       0.0788
     38 CBN        16.2883   -5.5036  -24.5650 C.2         1 MOL       0.1848
     39 OAC        17.4932   -5.4028  -24.7420 O.2         1 MOL      -0.3964
     40 CBC        15.0350   -4.2384  -22.8525 C.3         1 MOL       0.0422
     41 CBS        15.1721   -3.7903  -21.4581 C.2         1 MOL       0.1411
     42 CBA        14.3844   -4.1120  -20.3653 C.2         1 MOL      -0.0269
     43 OBK        16.0512   -2.8459  -21.0596 O.3         1 MOL      -0.1670
     44 NBG        15.8611   -2.5901  -19.7949 N.2         1 MOL      -0.1519
     45 CBU        14.8434   -3.3266  -19.3083 C.2         1 MOL       0.0430
     46 CBT        14.3564   -3.2418  -17.9769 C.ar        1 MOL      -0.0150
     47 CAU        13.2399   -3.9945  -17.5329 C.ar        1 MOL      -0.0551
     48 CAO        12.7702   -3.8889  -16.2111 C.ar        1 MOL      -0.0621
     49 CAJ        13.4079   -3.0242  -15.3040 C.ar        1 MOL      -0.0626
     50 CAP        14.5119   -2.2623  -15.7231 C.ar        1 MOL      -0.0621
     51 CAV        14.9796   -2.3698  -17.0438 C.ar        1 MOL      -0.0551
     52 H1         15.3341   -8.3907  -28.7983 H           1 MOL       0.0557
     53 H2         17.0815   -7.7654  -30.3389 H           1 MOL       0.0599
     54 H3         17.7710   -9.3049  -32.0885 H           1 MOL       0.0559
     55 H4         16.7014  -11.4781  -32.2802 H           1 MOL       0.0599
     56 H5         14.9527  -12.1152  -30.7405 H           1 MOL       0.0557
     57 H6         13.5005  -11.6538  -28.8632 H           1 MOL       0.0776
     58 H7         13.0893   -9.9403  -28.7938 H           1 MOL       0.0776
     59 H8         15.3071  -10.7953  -25.0683 H           1 MOL       0.1888
     60 H9         13.3492   -8.9184  -23.9564 H           1 MOL       0.0787
     61 H10        13.5065  -10.0719  -21.8762 H           1 MOL       0.0465
     62 H11        14.9240  -10.9799  -22.3628 H           1 MOL       0.0465
     63 H12        14.7488  -12.9323  -23.7836 H           1 MOL       0.0557
     64 H13        13.3968  -14.7208  -24.6546 H           1 MOL       0.0599
     65 H14        10.9738  -14.5451  -24.6351 H           1 MOL       0.0559
     66 H15         9.9132  -12.5582  -23.7284 H           1 MOL       0.0599
     67 H16        11.2536  -10.7392  -22.8864 H           1 MOL       0.0557
     68 H17        14.4848   -5.5988  -25.3180 H           1 MOL       0.1876
     69 H18        15.1588   -6.6491  -27.2226 H           1 MOL       0.0747
     70 H19        13.8011   -4.7438  -27.5719 H           1 MOL       0.0446
     71 H20        14.9602   -4.9203  -28.8653 H           1 MOL       0.0446
     72 H21        16.2992   -3.1550  -25.8970 H           1 MOL       0.0530
     73 H22        16.5572   -0.7849  -25.7368 H           1 MOL       0.0525
     74 H23        14.9534    1.3191  -26.9315 H           1 MOL       0.2458
     75 H24        14.4376   -0.2881  -29.3275 H           1 MOL       0.0525
     76 H25        14.1055   -2.6685  -29.4687 H           1 MOL       0.0530
     77 H26        14.6882   -6.9229  -21.8948 H           1 MOL       0.0495
     78 H27        13.9613   -6.7084  -23.4695 H           1 MOL       0.0495
     79 H28        16.6546   -5.6500  -22.5236 H           1 MOL       0.0581
     80 H29        13.9748   -4.3110  -23.1024 H           1 MOL       0.0513
     81 H30        15.4325   -3.4155  -23.4530 H           1 MOL       0.0513
     82 H31        13.6054   -4.7683  -20.3605 H           1 MOL       0.0289
     83 H32        12.7495   -4.6301  -18.1664 H           1 MOL       0.0616
     84 H33        11.9628   -4.4400  -15.9086 H           1 MOL       0.0615
     85 H34        13.0672   -2.9480  -14.3429 H           1 MOL       0.0610
     86 H35        14.9746   -1.6286  -15.0651 H           1 MOL       0.0615
     87 H36        15.7848   -1.7991  -17.3157 H           1 MOL       0.0616
@<TRIPOS>BOND
     1     1     2  ar
     2     6     1  ar
     3     2     3  ar
     4     4     3  ar
     5     5     4  ar
     6     6     5  ar
     7     7     6   1
     8     8     7   1
     9     9     8   1
    10     9    10   2
    11    11     9  am
    12    12    11   1
    13    12    13   1
    14    20    12   1
    15    13    14   1
    16    14    15  ar
    17    14    19  ar
    18    15    16  ar
    19    16    17  ar
    20    18    17  ar
    21    19    18  ar
    22    20    21  ar
    23    20    22  ar
    24    36    20   1
    25    23    24   1
    26    38    23  am
    27    24    25   1
    28    24    28   1
    29    25    26  ar
    30    25    27  ar
    31    28    29   1
    32    29    30  ar
    33    29    35  ar
    34    30    31  ar
    35    31    32  ar
    36    32    33   1
    37    34    32  ar
    38    35    34  ar
    39    37    36   1
    40    37    38   1
    41    37    40   1
    42    38    39   2
    43    40    41   1
    44    41    42   2
    45    41    43   1
    46    42    45   1
    47    43    44   1
    48    44    45   2
    49    45    46   1
    50    46    47  ar
    51    46    51  ar
    52    47    48  ar
    53    48    49  ar
    54    49    50  ar
    55    50    51  ar
    56     1    52   1
    57     2    53   1
    58     3    54   1
    59     4    55   1
    60     5    56   1
    61     7    57   1
    62     7    58   1
    63    11    59   1
    64    12    60   1
    65    13    61   1
    66    13    62   1
    67    15    63   1
    68    16    64   1
    69    17    65   1
    70    18    66   1
    71    19    67   1
    72    23    68   1
    73    24    69   1
    74    28    70   1
    75    28    71   1
    76    30    72   1
    77    31    73   1
    78    33    74   1
    79    34    75   1
    80    35    76   1
    81    36    77   1
    82    36    78   1
    83    37    79   1
    84    40    80   1
    85    40    81   1
    86    42    82   1
    87    47    83   1
    88    48    84   1
    89    49    85   1
    90    50    86   1
    91    51    87   1
@<TRIPOS>SUBSTRUCTURE
     1  MOL      1

