@<TRIPOS>MOLECULE
2xy9_ligand_024
    87    91
SMALL
GAST_HUCK
****
This file was generated by PARSER (from files_GN.cpp)

@<TRIPOS>ATOM
      1 CAQ        13.2045   -2.9532  -14.5412 C.ar        1 MOL      -0.0578
      2 CAK        11.8885   -2.7699  -14.0799 C.ar        1 MOL      -0.0685
      3 CAH        11.2845   -1.5016  -14.1618 C.ar        1 MOL      -0.0687
      4 CAL        11.9824   -0.4282  -14.7471 C.ar        1 MOL      -0.0685
      5 CAR        13.2921   -0.6171  -15.2255 C.ar        1 MOL      -0.0578
      6 CBP        13.9278   -1.8764  -15.1091 C.ar        1 MOL      -0.0130
      7 CBB        15.3266   -2.0627  -15.5624 C.3         1 MOL       0.1113
      8 OBJ        15.4137   -2.3629  -16.9594 O.3         1 MOL      -0.2506
      9 CBM        14.5972   -3.1649  -17.7018 C.2         1 MOL       0.3232
     10 OAB        13.4906   -3.7459  -17.1782 O.2         1 MOL      -0.3774
     11 NBI        14.9301   -3.3204  -18.9992 N.am        1 MOL      -0.2418
     12 CBX        14.1425   -3.9759  -20.0173 C.3         1 MOL       0.1176
     13 CBE        12.6421   -3.4777  -20.0595 C.3         1 MOL       0.0205
     14 CBQ        12.3530   -2.2146  -19.3176 C.ar        1 MOL      -0.0393
     15 CAS        13.1209   -1.0549  -19.5731 C.ar        1 MOL      -0.0602
     16 CAM        12.9571    0.0982  -18.7842 C.ar        1 MOL      -0.0686
     17 CAI        11.9600    0.1421  -17.7925 C.ar        1 MOL      -0.0687
     18 CAN        11.1510   -0.9833  -17.5659 C.ar        1 MOL      -0.0686
     19 CAT        11.3544   -2.1563  -18.3138 C.ar        1 MOL      -0.0602
     20 PBY        14.9861   -3.9328  -21.4797 P.3         1 MOL       0.0154
     21 OAG        16.0588   -2.9689  -21.4491 O.co2       1 MOL      -0.6174
     22 OAD        14.2136   -3.4241  -22.5863 O.co2       1 MOL      -0.6174
     23 N          13.8740   -5.2505  -24.6641 N.am        1 MOL      -0.2694
     24 CA         13.5331   -4.9407  -26.0252 C.3         1 MOL       0.1024
     25 C          12.6274   -6.0302  -26.4779 C.2         1 MOL       0.0619
     26 OXT        11.2884   -5.8174  -26.5616 O.co2       1 MOL      -0.5665
     27 O          13.1061   -7.2596  -26.7903 O.co2       1 MOL      -0.5665
     28 CB         14.6501   -4.6327  -27.0846 C.3         1 MOL       0.0108
     29 CG         14.8406   -3.1827  -27.3784 C.ar        1 MOL      -0.0499
     30 CD1        15.7734   -2.3960  -26.6609 C.ar        1 MOL      -0.0686
     31 CE1        16.0403   -1.0681  -27.0444 C.ar        1 MOL      -0.0398
     32 CZ         15.3707   -0.5010  -28.1495 C.ar        1 MOL       0.0805
     33 OH         15.6679    0.7653  -28.5376 O.3         1 MOL      -0.3376
     34 CE2        14.4119   -1.2578  -28.8433 C.ar        1 MOL      -0.0398
     35 CD2        14.1397   -2.5826  -28.4551 C.ar        1 MOL      -0.0686
     36 CBF        15.7004   -5.3982  -21.8735 C.3         1 MOL       0.0375
     37 CBV        14.8552   -6.3764  -22.7561 C.3         1 MOL       0.0788
     38 CBN        14.8907   -5.9434  -24.1611 C.2         1 MOL       0.1848
     39 OAC        15.8680   -6.2353  -24.8419 O.2         1 MOL      -0.3964
     40 CBC        15.3293   -7.8647  -22.5695 C.3         1 MOL       0.0422
     41 CBS        14.7470   -8.8286  -23.5288 C.2         1 MOL       0.1411
     42 CBA        15.3766   -9.3526  -24.6529 C.2         1 MOL      -0.0269
     43 OBK        13.4716   -9.2792  -23.5492 O.3         1 MOL      -0.1670
     44 NBG        13.2914  -10.0312  -24.6058 N.2         1 MOL      -0.1519
     45 CBU        14.4233  -10.0958  -25.3421 C.2         1 MOL       0.0430
     46 CBT        14.5547  -10.7464  -26.6057 C.ar        1 MOL      -0.0150
     47 CAU        15.6112  -10.4210  -27.4984 C.ar        1 MOL      -0.0551
     48 CAO        15.6965  -11.0221  -28.7661 C.ar        1 MOL      -0.0621
     49 CAJ        14.7333  -11.9684  -29.1635 C.ar        1 MOL      -0.0626
     50 CAP        13.6833  -12.3048  -28.2914 C.ar        1 MOL      -0.0621
     51 CAV        13.5959  -11.6993  -27.0279 C.ar        1 MOL      -0.0551
     52 H1         13.6360   -3.8756  -14.4478 H           1 MOL       0.0557
     53 H2         11.3713   -3.5618  -13.6848 H           1 MOL       0.0599
     54 H3         10.3409   -1.3616  -13.7941 H           1 MOL       0.0559
     55 H4         11.5435    0.4945  -14.8015 H           1 MOL       0.0599
     56 H5         13.7878    0.1778  -15.6395 H           1 MOL       0.0557
     57 H6         15.8154   -2.8606  -15.0013 H           1 MOL       0.0776
     58 H7         15.8926   -1.1509  -15.3635 H           1 MOL       0.0776
     59 H8         15.7528   -2.8871  -19.2783 H           1 MOL       0.1888
     60 H9         14.0971   -5.0354  -19.7473 H           1 MOL       0.0787
     61 H10        12.0179   -4.2811  -19.6431 H           1 MOL       0.0465
     62 H11        12.2782   -3.3533  -21.0840 H           1 MOL       0.0465
     63 H12        13.8474   -1.0588  -20.2914 H           1 MOL       0.0557
     64 H13        13.5739    0.9020  -18.9258 H           1 MOL       0.0599
     65 H14        11.8138    0.9926  -17.2456 H           1 MOL       0.0559
     66 H15        10.4142   -0.9456  -16.8541 H           1 MOL       0.0599
     67 H16        10.7742   -2.9730  -18.1114 H           1 MOL       0.0557
     68 H17        13.1757   -5.0298  -24.0284 H           1 MOL       0.1876
     69 H18        12.9026   -4.0503  -25.9534 H           1 MOL       0.0747
     70 H19        14.4075   -5.1290  -28.0391 H           1 MOL       0.0446
     71 H20        15.6119   -5.0579  -26.7955 H           1 MOL       0.0446
     72 H21        16.2875   -2.7957  -25.8703 H           1 MOL       0.0530
     73 H22        16.7328   -0.5120  -26.5370 H           1 MOL       0.0525
     74 H23        15.0012    1.0130  -29.2196 H           1 MOL       0.2458
     75 H24        13.9205   -0.8557  -29.6444 H           1 MOL       0.0525
     76 H25        13.4526   -3.1234  -28.9784 H           1 MOL       0.0530
     77 H26        15.9442   -5.8855  -20.9276 H           1 MOL       0.0495
     78 H27        16.6579   -5.2047  -22.3736 H           1 MOL       0.0495
     79 H28        13.8210   -6.3498  -22.4010 H           1 MOL       0.0581
     80 H29        15.0746   -8.2020  -21.5615 H           1 MOL       0.0513
     81 H30        16.4219   -7.9074  -22.6560 H           1 MOL       0.0513
     82 H31        16.3392   -9.1692  -24.9361 H           1 MOL       0.0289
     83 H32        16.3119   -9.7236  -27.2512 H           1 MOL       0.0616
     84 H33        16.4542  -10.7721  -29.4023 H           1 MOL       0.0615
     85 H34        14.7934  -12.4008  -30.0903 H           1 MOL       0.0610
     86 H35        12.9835  -12.9886  -28.5845 H           1 MOL       0.0615
     87 H36        12.8191  -11.9609  -26.4141 H           1 MOL       0.0616
@<TRIPOS>BOND
     1     1     2  ar
     2     6     1  ar
     3     2     3  ar
     4     4     3  ar
     5     5     4  ar
     6     6     5  ar
     7     7     6   1
     8     8     7   1
     9     9     8   1
    10     9    10   2
    11    11     9  am
    12    12    11   1
    13    12    13   1
    14    20    12   1
    15    13    14   1
    16    14    15  ar
    17    14    19  ar
    18    15    16  ar
    19    16    17  ar
    20    18    17  ar
    21    19    18  ar
    22    20    21  ar
    23    20    22  ar
    24    36    20   1
    25    23    24   1
    26    38    23  am
    27    24    25   1
    28    24    28   1
    29    25    26  ar
    30    25    27  ar
    31    28    29   1
    32    29    30  ar
    33    29    35  ar
    34    30    31  ar
    35    31    32  ar
    36    32    33   1
    37    34    32  ar
    38    35    34  ar
    39    37    36   1
    40    37    38   1
    41    37    40   1
    42    38    39   2
    43    40    41   1
    44    41    42   2
    45    41    43   1
    46    42    45   1
    47    43    44   1
    48    44    45   2
    49    45    46   1
    50    46    47  ar
    51    46    51  ar
    52    47    48  ar
    53    48    49  ar
    54    49    50  ar
    55    50    51  ar
    56     1    52   1
    57     2    53   1
    58     3    54   1
    59     4    55   1
    60     5    56   1
    61     7    57   1
    62     7    58   1
    63    11    59   1
    64    12    60   1
    65    13    61   1
    66    13    62   1
    67    15    63   1
    68    16    64   1
    69    17    65   1
    70    18    66   1
    71    19    67   1
    72    23    68   1
    73    24    69   1
    74    28    70   1
    75    28    71   1
    76    30    72   1
    77    31    73   1
    78    33    74   1
    79    34    75   1
    80    35    76   1
    81    36    77   1
    82    36    78   1
    83    37    79   1
    84    40    80   1
    85    40    81   1
    86    42    82   1
    87    47    83   1
    88    48    84   1
    89    49    85   1
    90    50    86   1
    91    51    87   1
@<TRIPOS>SUBSTRUCTURE
     1  MOL      1

