@<TRIPOS>MOLECULE
2xy9_ligand_019
    87    91
SMALL
GAST_HUCK
****
This file was generated by PARSER (from files_GN.cpp)

@<TRIPOS>ATOM
      1 CAQ        17.2793    3.9291  -16.4788 C.ar        1 MOL      -0.0578
      2 CAK        16.8424    5.2659  -16.5432 C.ar        1 MOL      -0.0685
      3 CAH        16.2048    5.7427  -17.7017 C.ar        1 MOL      -0.0687
      4 CAL        16.0133    4.8841  -18.7977 C.ar        1 MOL      -0.0685
      5 CAR        16.4449    3.5463  -18.7299 C.ar        1 MOL      -0.0578
      6 CBP        17.0738    3.0423  -17.5635 C.ar        1 MOL      -0.0130
      7 CBB        17.4970    1.6209  -17.4372 C.3         1 MOL       0.1113
      8 OBJ        16.8368    0.7703  -18.3854 O.3         1 MOL      -0.2506
      9 CBM        16.6556   -0.5741  -18.3488 C.2         1 MOL       0.3232
     10 OAB        17.1162   -1.3250  -17.3215 O.2         1 MOL      -0.3774
     11 NBI        15.9132   -1.1043  -19.3436 N.am        1 MOL      -0.2418
     12 CBX        15.4061   -2.4505  -19.4212 C.3         1 MOL       0.1176
     13 CBE        14.4600   -2.8050  -18.2127 C.3         1 MOL       0.0205
     14 CBQ        13.6134   -1.6955  -17.6742 C.ar        1 MOL      -0.0393
     15 CAS        13.7620   -1.2584  -16.3322 C.ar        1 MOL      -0.0602
     16 CAM        12.9842   -0.2038  -15.8224 C.ar        1 MOL      -0.0686
     17 CAI        12.0364    0.4336  -16.6427 C.ar        1 MOL      -0.0687
     18 CAN        11.8666    0.0071  -17.9703 C.ar        1 MOL      -0.0686
     19 CAT        12.6399   -1.0536  -18.4771 C.ar        1 MOL      -0.0602
     20 PBY        14.7651   -2.7467  -20.9588 P.3         1 MOL       0.0154
     21 OAG        14.5667   -1.5037  -21.6594 O.co2       1 MOL      -0.6174
     22 OAD        13.4080   -3.2397  -20.9158 O.co2       1 MOL      -0.6174
     23 N          13.3602   -4.6136  -23.9333 N.am        1 MOL      -0.2694
     24 CA         12.6601   -4.5032  -25.1881 C.3         1 MOL       0.1024
     25 C          12.2530   -5.8377  -25.7056 C.2         1 MOL       0.0619
     26 OXT        11.0831   -5.9820  -26.3698 O.co2       1 MOL      -0.5665
     27 O          13.0873   -6.9046  -25.6733 O.co2       1 MOL      -0.5665
     28 CB         13.3422   -3.5252  -26.2137 C.3         1 MOL       0.0108
     29 CG         13.9892   -4.1277  -27.4171 C.ar        1 MOL      -0.0499
     30 CD1        13.1913   -4.6428  -28.4689 C.ar        1 MOL      -0.0686
     31 CE1        13.7788   -5.2637  -29.5847 C.ar        1 MOL      -0.0398
     32 CZ         15.1789   -5.3539  -29.6826 C.ar        1 MOL       0.0805
     33 OH         15.7401   -5.9885  -30.7388 O.3         1 MOL      -0.3376
     34 CE2        15.9876   -4.7967  -28.6781 C.ar        1 MOL      -0.0398
     35 CD2        15.3966   -4.1767  -27.5587 C.ar        1 MOL      -0.0686
     36 CBF        15.7082   -3.7138  -21.9641 C.3         1 MOL       0.0375
     37 CBV        15.1282   -5.1295  -22.3570 C.3         1 MOL       0.0788
     38 CBN        14.5797   -5.0967  -23.7160 C.2         1 MOL       0.1848
     39 OAC        15.2876   -5.4225  -24.6608 O.2         1 MOL      -0.3964
     40 CBC        16.1688   -6.2805  -22.1395 C.3         1 MOL       0.0422
     41 CBS        15.6152   -7.6280  -22.3838 C.2         1 MOL       0.1411
     42 CBA        16.0646   -8.6099  -23.2543 C.2         1 MOL      -0.0269
     43 OBK        14.5261   -8.1197  -21.7576 O.3         1 MOL      -0.1670
     44 NBG        14.2910   -9.3288  -22.1854 N.2         1 MOL      -0.1519
     45 CBU        15.2011   -9.6958  -23.1085 C.2         1 MOL       0.0430
     46 CBT        15.2191  -10.9683  -23.7530 C.ar        1 MOL      -0.0150
     47 CAU        16.2691  -11.3574  -24.6229 C.ar        1 MOL      -0.0551
     48 CAO        16.2736  -12.6254  -25.2343 C.ar        1 MOL      -0.0621
     49 CAJ        15.2291  -13.5323  -24.9882 C.ar        1 MOL      -0.0626
     50 CAP        14.1788  -13.1684  -24.1280 C.ar        1 MOL      -0.0621
     51 CAV        14.1757  -11.9010  -23.5184 C.ar        1 MOL      -0.0551
     52 H1         17.7325    3.6006  -15.6213 H           1 MOL       0.0557
     53 H2         16.9845    5.8914  -15.7455 H           1 MOL       0.0599
     54 H3         15.8863    6.7127  -17.7488 H           1 MOL       0.0559
     55 H4         15.5566    5.2321  -19.6451 H           1 MOL       0.0599
     56 H5         16.2927    2.9444  -19.5422 H           1 MOL       0.0557
     57 H6         17.2540    1.2659  -16.4317 H           1 MOL       0.0776
     58 H7         18.5784    1.5522  -17.5728 H           1 MOL       0.0776
     59 H8         15.6577   -0.4895  -20.0483 H           1 MOL       0.1888
     60 H9         16.2745   -3.1114  -19.3337 H           1 MOL       0.0787
     61 H10        15.1052   -3.1781  -17.4105 H           1 MOL       0.0465
     62 H11        13.8084   -3.6506  -18.4544 H           1 MOL       0.0465
     63 H12        14.4474   -1.7012  -15.7144 H           1 MOL       0.0557
     64 H13        13.1046    0.1008  -14.8514 H           1 MOL       0.0599
     65 H14        11.4727    1.2025  -16.2744 H           1 MOL       0.0559
     66 H15        11.1790    0.4714  -18.5683 H           1 MOL       0.0599
     67 H16        12.4900   -1.3409  -19.4444 H           1 MOL       0.0557
     68 H17        12.8709   -4.3005  -23.1539 H           1 MOL       0.1876
     69 H18        11.7236   -4.0185  -24.9076 H           1 MOL       0.0747
     70 H19        14.0752   -2.9135  -25.6786 H           1 MOL       0.0446
     71 H20        12.5949   -2.8108  -26.5805 H           1 MOL       0.0446
     72 H21        12.1717   -4.5825  -28.4209 H           1 MOL       0.0530
     73 H22        13.1851   -5.6621  -30.3178 H           1 MOL       0.0525
     74 H23        15.9046   -5.2786  -31.3977 H           1 MOL       0.2458
     75 H24        17.0066   -4.8485  -28.7512 H           1 MOL       0.0525
     76 H25        16.0049   -3.7855  -26.8356 H           1 MOL       0.0530
     77 H26        16.6770   -3.8322  -21.4801 H           1 MOL       0.0495
     78 H27        15.9315   -3.1436  -22.8748 H           1 MOL       0.0495
     79 H28        14.3070   -5.3934  -21.6833 H           1 MOL       0.0581
     80 H29        16.4932   -6.2633  -21.0962 H           1 MOL       0.0513
     81 H30        17.0513   -6.1147  -22.7641 H           1 MOL       0.0513
     82 H31        16.8756   -8.5358  -23.8701 H           1 MOL       0.0289
     83 H32        17.0485  -10.7265  -24.8179 H           1 MOL       0.0616
     84 H33        17.0407  -12.8917  -25.8572 H           1 MOL       0.0615
     85 H34        15.2321  -14.4537  -25.4313 H           1 MOL       0.0610
     86 H35        13.4181  -13.8271  -23.9442 H           1 MOL       0.0615
     87 H36        13.3939  -11.6684  -22.9003 H           1 MOL       0.0616
@<TRIPOS>BOND
     1     1     2  ar
     2     6     1  ar
     3     2     3  ar
     4     4     3  ar
     5     5     4  ar
     6     6     5  ar
     7     7     6   1
     8     8     7   1
     9     9     8   1
    10     9    10   2
    11    11     9  am
    12    12    11   1
    13    12    13   1
    14    20    12   1
    15    13    14   1
    16    14    15  ar
    17    14    19  ar
    18    15    16  ar
    19    16    17  ar
    20    18    17  ar
    21    19    18  ar
    22    20    21  ar
    23    20    22  ar
    24    36    20   1
    25    23    24   1
    26    38    23  am
    27    24    25   1
    28    24    28   1
    29    25    26  ar
    30    25    27  ar
    31    28    29   1
    32    29    30  ar
    33    29    35  ar
    34    30    31  ar
    35    31    32  ar
    36    32    33   1
    37    34    32  ar
    38    35    34  ar
    39    37    36   1
    40    37    38   1
    41    37    40   1
    42    38    39   2
    43    40    41   1
    44    41    42   2
    45    41    43   1
    46    42    45   1
    47    43    44   1
    48    44    45   2
    49    45    46   1
    50    46    47  ar
    51    46    51  ar
    52    47    48  ar
    53    48    49  ar
    54    49    50  ar
    55    50    51  ar
    56     1    52   1
    57     2    53   1
    58     3    54   1
    59     4    55   1
    60     5    56   1
    61     7    57   1
    62     7    58   1
    63    11    59   1
    64    12    60   1
    65    13    61   1
    66    13    62   1
    67    15    63   1
    68    16    64   1
    69    17    65   1
    70    18    66   1
    71    19    67   1
    72    23    68   1
    73    24    69   1
    74    28    70   1
    75    28    71   1
    76    30    72   1
    77    31    73   1
    78    33    74   1
    79    34    75   1
    80    35    76   1
    81    36    77   1
    82    36    78   1
    83    37    79   1
    84    40    80   1
    85    40    81   1
    86    42    82   1
    87    47    83   1
    88    48    84   1
    89    49    85   1
    90    50    86   1
    91    51    87   1
@<TRIPOS>SUBSTRUCTURE
     1  MOL      1

