@<TRIPOS>MOLECULE
2xy9_ligand_009
    87    91
SMALL
GAST_HUCK
****
This file was generated by PARSER (from files_GN.cpp)

@<TRIPOS>ATOM
      1 CAQ        15.2992    1.0645  -16.9982 C.ar        1 MOL      -0.0578
      2 CAK        14.4000    2.0744  -17.3903 C.ar        1 MOL      -0.0685
      3 CAH        14.8707    3.2015  -18.0965 C.ar        1 MOL      -0.0687
      4 CAL        16.2414    3.3233  -18.3848 C.ar        1 MOL      -0.0685
      5 CAR        17.1385    2.3129  -17.9876 C.ar        1 MOL      -0.0578
      6 CBP        16.6765    1.1580  -17.3072 C.ar        1 MOL      -0.0130
      7 CBB        17.6027    0.0587  -16.9311 C.3         1 MOL       0.1113
      8 OBJ        17.3552   -1.2273  -17.5246 O.3         1 MOL      -0.2506
      9 CBM        16.4269   -1.7020  -18.4019 C.2         1 MOL       0.3232
     10 OAB        15.4829   -0.8851  -18.9306 O.2         1 MOL      -0.3774
     11 NBI        16.5070   -3.0103  -18.7322 N.am        1 MOL      -0.2418
     12 CBX        15.6014   -3.7873  -19.5428 C.3         1 MOL       0.1176
     13 CBE        14.1841   -3.9461  -18.8790 C.3         1 MOL       0.0205
     14 CBQ        13.5012   -2.7144  -18.3752 C.ar        1 MOL      -0.0393
     15 CAS        13.4622   -2.4209  -16.9882 C.ar        1 MOL      -0.0602
     16 CAM        12.7957   -1.2807  -16.5031 C.ar        1 MOL      -0.0686
     17 CAI        12.1653   -0.4027  -17.4022 C.ar        1 MOL      -0.0687
     18 CAN        12.1689   -0.6913  -18.7774 C.ar        1 MOL      -0.0686
     19 CAT        12.8143   -1.8476  -19.2572 C.ar        1 MOL      -0.0602
     20 PBY        15.6458   -3.4289  -21.1855 P.3         1 MOL       0.0154
     21 OAG        16.7356   -2.5117  -21.4197 O.co2       1 MOL      -0.6174
     22 OAD        14.5110   -2.6563  -21.6272 O.co2       1 MOL      -0.6174
     23 N          13.8267   -4.9355  -24.4338 N.am        1 MOL      -0.2694
     24 CA         13.3571   -4.8570  -25.7884 C.3         1 MOL       0.1024
     25 C          12.4548   -5.9977  -26.0793 C.2         1 MOL       0.0619
     26 OXT        11.1810   -5.7716  -26.4720 O.co2       1 MOL      -0.5665
     27 O          12.8829   -7.2777  -25.9991 O.co2       1 MOL      -0.5665
     28 CB         14.4623   -4.6855  -26.8948 C.3         1 MOL       0.0108
     29 CG         14.7388   -3.2699  -27.2608 C.ar        1 MOL      -0.0499
     30 CD1        15.6998   -2.5007  -26.5662 C.ar        1 MOL      -0.0686
     31 CE1        16.0027   -1.1872  -26.9808 C.ar        1 MOL      -0.0398
     32 CZ         15.3434   -0.6249  -28.0883 C.ar        1 MOL       0.0805
     33 OH         15.6549    0.6355  -28.4896 O.3         1 MOL      -0.3376
     34 CE2        14.3768   -1.3813  -28.7783 C.ar        1 MOL      -0.0398
     35 CD2        14.0735   -2.6878  -28.3659 C.ar        1 MOL      -0.0686
     36 CBF        15.9201   -4.6541  -22.2956 C.3         1 MOL       0.0375
     37 CBV        14.8355   -5.7954  -22.4099 C.3         1 MOL       0.0788
     38 CBN        14.4373   -5.9455  -23.8171 C.2         1 MOL       0.1848
     39 OAC        14.8651   -6.8955  -24.4627 O.2         1 MOL      -0.3964
     40 CBC        15.2234   -7.1232  -21.6361 C.3         1 MOL       0.0422
     41 CBS        15.4741   -8.3560  -22.4134 C.2         1 MOL       0.1411
     42 CBA        14.6472   -9.4612  -22.5575 C.2         1 MOL      -0.0269
     43 OBK        16.5603   -8.5765  -23.1898 O.3         1 MOL      -0.1670
     44 NBG        16.4364   -9.7290  -23.7941 N.2         1 MOL      -0.1519
     45 CBU        15.2738  -10.3254  -23.4553 C.2         1 MOL       0.0430
     46 CBT        14.8177  -11.5775  -23.9663 C.ar        1 MOL      -0.0150
     47 CAU        13.6383  -12.1999  -23.4848 C.ar        1 MOL      -0.0551
     48 CAO        13.2043  -13.4357  -24.0013 C.ar        1 MOL      -0.0621
     49 CAJ        13.9414  -14.0746  -25.0136 C.ar        1 MOL      -0.0626
     50 CAP        15.1072  -13.4699  -25.5137 C.ar        1 MOL      -0.0621
     51 CAV        15.5388  -12.2346  -24.9956 C.ar        1 MOL      -0.0551
     52 H1         14.9398    0.2571  -16.4825 H           1 MOL       0.0557
     53 H2         13.4049    1.9935  -17.1671 H           1 MOL       0.0599
     54 H3         14.2173    3.9313  -18.3901 H           1 MOL       0.0559
     55 H4         16.5864    4.1478  -18.8854 H           1 MOL       0.0599
     56 H5         18.1307    2.4252  -18.2012 H           1 MOL       0.0557
     57 H6         17.5555   -0.0703  -15.8475 H           1 MOL       0.0776
     58 H7         18.6379    0.3227  -17.1659 H           1 MOL       0.0776
     59 H8         17.2931   -3.4856  -18.4109 H           1 MOL       0.1888
     60 H9         16.0374   -4.7868  -19.5033 H           1 MOL       0.0787
     61 H10        14.3036   -4.6208  -18.0259 H           1 MOL       0.0465
     62 H11        13.5048   -4.4719  -19.5542 H           1 MOL       0.0465
     63 H12        13.9219   -3.0387  -16.3150 H           1 MOL       0.0557
     64 H13        12.7644   -1.0922  -15.4984 H           1 MOL       0.0599
     65 H14        11.6847    0.4306  -17.0542 H           1 MOL       0.0559
     66 H15        11.6914   -0.0656  -19.4269 H           1 MOL       0.0599
     67 H16        12.7675   -2.0585  -20.2555 H           1 MOL       0.0557
     68 H17        13.6327   -4.1598  -23.8804 H           1 MOL       0.1876
     69 H18        12.7266   -3.9645  -25.8097 H           1 MOL       0.0747
     70 H19        14.1625   -5.2069  -27.8096 H           1 MOL       0.0446
     71 H20        15.3953   -5.1637  -26.5933 H           1 MOL       0.0446
     72 H21        16.1964   -2.8957  -25.7635 H           1 MOL       0.0530
     73 H22        16.7153   -0.6493  -26.4807 H           1 MOL       0.0525
     74 H23        14.9548    0.9099  -29.1233 H           1 MOL       0.2458
     75 H24        13.9066   -0.9815  -29.5928 H           1 MOL       0.0525
     76 H25        13.3801   -3.2274  -28.8889 H           1 MOL       0.0530
     77 H26        16.8964   -5.0889  -22.0842 H           1 MOL       0.0495
     78 H27        16.0426   -4.1496  -23.2609 H           1 MOL       0.0495
     79 H28        13.9285   -5.4428  -21.9042 H           1 MOL       0.0581
     80 H29        14.4458   -7.3618  -20.9056 H           1 MOL       0.0513
     81 H30        16.1212   -6.9506  -21.0411 H           1 MOL       0.0513
     82 H31        13.7355   -9.5808  -22.1205 H           1 MOL       0.0289
     83 H32        13.0804  -11.7694  -22.7446 H           1 MOL       0.0616
     84 H33        12.3517  -13.8719  -23.6425 H           1 MOL       0.0615
     85 H34        13.6282  -14.9720  -25.3893 H           1 MOL       0.0610
     86 H35        15.6399  -13.9290  -26.2554 H           1 MOL       0.0615
     87 H36        16.3898  -11.8216  -25.3855 H           1 MOL       0.0616
@<TRIPOS>BOND
     1     1     2  ar
     2     6     1  ar
     3     2     3  ar
     4     4     3  ar
     5     5     4  ar
     6     6     5  ar
     7     7     6   1
     8     8     7   1
     9     9     8   1
    10     9    10   2
    11    11     9  am
    12    12    11   1
    13    12    13   1
    14    20    12   1
    15    13    14   1
    16    14    15  ar
    17    14    19  ar
    18    15    16  ar
    19    16    17  ar
    20    18    17  ar
    21    19    18  ar
    22    20    21  ar
    23    20    22  ar
    24    36    20   1
    25    23    24   1
    26    38    23  am
    27    24    25   1
    28    24    28   1
    29    25    26  ar
    30    25    27  ar
    31    28    29   1
    32    29    30  ar
    33    29    35  ar
    34    30    31  ar
    35    31    32  ar
    36    32    33   1
    37    34    32  ar
    38    35    34  ar
    39    37    36   1
    40    37    38   1
    41    37    40   1
    42    38    39   2
    43    40    41   1
    44    41    42   2
    45    41    43   1
    46    42    45   1
    47    43    44   1
    48    44    45   2
    49    45    46   1
    50    46    47  ar
    51    46    51  ar
    52    47    48  ar
    53    48    49  ar
    54    49    50  ar
    55    50    51  ar
    56     1    52   1
    57     2    53   1
    58     3    54   1
    59     4    55   1
    60     5    56   1
    61     7    57   1
    62     7    58   1
    63    11    59   1
    64    12    60   1
    65    13    61   1
    66    13    62   1
    67    15    63   1
    68    16    64   1
    69    17    65   1
    70    18    66   1
    71    19    67   1
    72    23    68   1
    73    24    69   1
    74    28    70   1
    75    28    71   1
    76    30    72   1
    77    31    73   1
    78    33    74   1
    79    34    75   1
    80    35    76   1
    81    36    77   1
    82    36    78   1
    83    37    79   1
    84    40    80   1
    85    40    81   1
    86    42    82   1
    87    47    83   1
    88    48    84   1
    89    49    85   1
    90    50    86   1
    91    51    87   1
@<TRIPOS>SUBSTRUCTURE
     1  MOL      1

