@<TRIPOS>MOLECULE
2xy9_ligand_010
    87    91
SMALL
GAST_HUCK
****
This file was generated by PARSER (from files_GN.cpp)

@<TRIPOS>ATOM
      1 CAQ        12.6040  -10.8029  -27.5142 C.ar        1 MOL      -0.0578
      2 CAK        13.3669  -11.7831  -28.1784 C.ar        1 MOL      -0.0685
      3 CAH        13.4751  -13.0778  -27.6400 C.ar        1 MOL      -0.0687
      4 CAL        12.8024  -13.4000  -26.4483 C.ar        1 MOL      -0.0685
      5 CAR        12.0521  -12.4171  -25.7759 C.ar        1 MOL      -0.0578
      6 CBP        11.9605  -11.1018  -26.2893 C.ar        1 MOL      -0.0130
      7 CBB        11.3510  -10.0315  -25.4589 C.3         1 MOL       0.1113
      8 OBJ        12.2365   -9.7403  -24.3647 O.3         1 MOL      -0.2506
      9 CBM        13.5424   -9.3579  -24.4557 C.2         1 MOL       0.3232
     10 OAB        14.1268   -9.1577  -25.6641 O.2         1 MOL      -0.3774
     11 NBI        14.2534   -9.2660  -23.3046 N.am        1 MOL      -0.2418
     12 CBX        15.6560   -8.9592  -23.1473 C.3         1 MOL       0.1176
     13 CBE        16.5647   -9.8773  -24.0291 C.3         1 MOL       0.0205
     14 CBQ        16.7641  -11.2503  -23.4743 C.ar        1 MOL      -0.0393
     15 CAS        17.6028  -11.4590  -22.3473 C.ar        1 MOL      -0.0602
     16 CAM        17.8655  -12.7595  -21.8744 C.ar        1 MOL      -0.0686
     17 CAI        17.2854  -13.8697  -22.5146 C.ar        1 MOL      -0.0687
     18 CAN        16.4352  -13.6778  -23.6195 C.ar        1 MOL      -0.0686
     19 CAT        16.1800  -12.3794  -24.0952 C.ar        1 MOL      -0.0602
     20 PBY        15.9720   -7.3191  -23.3175 P.3         1 MOL       0.0154
     21 OAG        15.5601   -6.8488  -24.6191 O.co2       1 MOL      -0.6174
     22 OAD        17.3962   -7.0713  -23.2385 O.co2       1 MOL      -0.6174
     23 N          13.5692   -4.7346  -23.8819 N.am        1 MOL      -0.2694
     24 CA         12.7896   -4.4362  -25.0598 C.3         1 MOL       0.1024
     25 C          12.2766   -5.7207  -25.5834 C.2         1 MOL       0.0619
     26 OXT        11.1045   -5.7267  -26.2659 O.co2       1 MOL      -0.5665
     27 O          13.1331   -6.7541  -25.7933 O.co2       1 MOL      -0.5665
     28 CB         13.3197   -3.4866  -26.1938 C.3         1 MOL       0.0108
     29 CG         13.9120   -4.0595  -27.4436 C.ar        1 MOL      -0.0499
     30 CD1        13.0910   -4.7444  -28.3773 C.ar        1 MOL      -0.0686
     31 CE1        13.5846   -5.1208  -29.6420 C.ar        1 MOL      -0.0398
     32 CZ         14.9100   -4.8129  -30.0052 C.ar        1 MOL       0.0805
     33 OH         15.3845   -5.1136  -31.2411 O.3         1 MOL      -0.3376
     34 CE2        15.7477   -4.1629  -29.0796 C.ar        1 MOL      -0.0398
     35 CD2        15.2505   -3.7872  -27.8158 C.ar        1 MOL      -0.0686
     36 CBF        15.2231   -6.4492  -22.1110 C.3         1 MOL       0.0375
     37 CBV        15.2817   -4.8823  -22.1816 C.3         1 MOL       0.0788
     38 CBN        14.7698   -4.3577  -23.4582 C.2         1 MOL       0.1848
     39 OAC        15.4992   -3.6447  -24.1348 O.2         1 MOL      -0.3964
     40 CBC        14.5099   -4.2852  -20.9558 C.3         1 MOL       0.0422
     41 CBS        14.8669   -2.9000  -20.5921 C.2         1 MOL       0.1411
     42 CBA        15.7752   -2.4931  -19.6236 C.2         1 MOL      -0.0269
     43 OBK        14.2280   -1.7962  -21.0281 O.3         1 MOL      -0.1670
     44 NBG        14.6967   -0.7550  -20.3972 N.2         1 MOL      -0.1519
     45 CBU        15.6494   -1.1107  -19.5115 C.2         1 MOL       0.0430
     46 CBT        16.3495   -0.2093  -18.6616 C.ar        1 MOL      -0.0150
     47 CAU        17.3811   -0.6455  -17.7921 C.ar        1 MOL      -0.0551
     48 CAO        18.0985    0.2629  -16.9932 C.ar        1 MOL      -0.0621
     49 CAJ        17.8016    1.6354  -17.0478 C.ar        1 MOL      -0.0626
     50 CAP        16.7753    2.0932  -17.8928 C.ar        1 MOL      -0.0621
     51 CAV        16.0544    1.1787  -18.6838 C.ar        1 MOL      -0.0551
     52 H1         12.5650   -9.8575  -27.9044 H           1 MOL       0.0557
     53 H2         13.8556  -11.5500  -29.0470 H           1 MOL       0.0599
     54 H3         14.0384  -13.7858  -28.1188 H           1 MOL       0.0559
     55 H4         12.8736  -14.3437  -26.0601 H           1 MOL       0.0599
     56 H5         11.5975  -12.6590  -24.8918 H           1 MOL       0.0557
     57 H6         10.3960  -10.3753  -25.0579 H           1 MOL       0.0776
     58 H7         11.1598   -9.1165  -26.0275 H           1 MOL       0.0776
     59 H8         13.7556   -9.4644  -22.4946 H           1 MOL       0.1888
     60 H9         15.8874   -9.1757  -22.1020 H           1 MOL       0.0787
     61 H10        17.5622   -9.4413  -24.1256 H           1 MOL       0.0465
     62 H11        16.1304   -9.9204  -25.0426 H           1 MOL       0.0465
     63 H12        18.0562  -10.6684  -21.8839 H           1 MOL       0.0557
     64 H13        18.4794  -12.9059  -21.0690 H           1 MOL       0.0599
     65 H14        17.4743  -14.8152  -22.1737 H           1 MOL       0.0559
     66 H15        16.0088  -14.4855  -24.0825 H           1 MOL       0.0599
     67 H16        15.5741  -12.2601  -24.9110 H           1 MOL       0.0557
     68 H17        13.0974   -5.3167  -23.2603 H           1 MOL       0.1876
     69 H18        11.9198   -3.9120  -24.6440 H           1 MOL       0.0747
     70 H19        14.0274   -2.7981  -25.7352 H           1 MOL       0.0446
     71 H20        12.4784   -2.8584  -26.5164 H           1 MOL       0.0446
     72 H21        12.1093   -4.9426  -28.1587 H           1 MOL       0.0530
     73 H22        12.9685   -5.5957  -30.3119 H           1 MOL       0.0525
     74 H23        14.7575   -4.7072  -31.8788 H           1 MOL       0.2458
     75 H24        16.7110   -3.9299  -29.3395 H           1 MOL       0.0525
     76 H25        15.8675   -3.2719  -27.1858 H           1 MOL       0.0530
     77 H26        15.6948   -6.7721  -21.1773 H           1 MOL       0.0495
     78 H27        14.1804   -6.7673  -22.0687 H           1 MOL       0.0495
     79 H28        16.3364   -4.6001  -22.0664 H           1 MOL       0.0581
     80 H29        14.7003   -4.8985  -20.0718 H           1 MOL       0.0513
     81 H30        13.4320   -4.3345  -21.1352 H           1 MOL       0.0513
     82 H31        16.3845   -3.1085  -19.0857 H           1 MOL       0.0289
     83 H32        17.6437   -1.6295  -17.7446 H           1 MOL       0.0616
     84 H33        18.8482   -0.0709  -16.3804 H           1 MOL       0.0615
     85 H34        18.3287    2.3003  -16.4740 H           1 MOL       0.0610
     86 H35        16.5586    3.0938  -17.9328 H           1 MOL       0.0615
     87 H36        15.3139    1.5478  -19.2839 H           1 MOL       0.0616
@<TRIPOS>BOND
     1     1     2  ar
     2     6     1  ar
     3     2     3  ar
     4     4     3  ar
     5     5     4  ar
     6     6     5  ar
     7     7     6   1
     8     8     7   1
     9     9     8   1
    10     9    10   2
    11    11     9  am
    12    12    11   1
    13    12    13   1
    14    20    12   1
    15    13    14   1
    16    14    15  ar
    17    14    19  ar
    18    15    16  ar
    19    16    17  ar
    20    18    17  ar
    21    19    18  ar
    22    20    21  ar
    23    20    22  ar
    24    36    20   1
    25    23    24   1
    26    38    23  am
    27    24    25   1
    28    24    28   1
    29    25    26  ar
    30    25    27  ar
    31    28    29   1
    32    29    30  ar
    33    29    35  ar
    34    30    31  ar
    35    31    32  ar
    36    32    33   1
    37    34    32  ar
    38    35    34  ar
    39    37    36   1
    40    37    38   1
    41    37    40   1
    42    38    39   2
    43    40    41   1
    44    41    42   2
    45    41    43   1
    46    42    45   1
    47    43    44   1
    48    44    45   2
    49    45    46   1
    50    46    47  ar
    51    46    51  ar
    52    47    48  ar
    53    48    49  ar
    54    49    50  ar
    55    50    51  ar
    56     1    52   1
    57     2    53   1
    58     3    54   1
    59     4    55   1
    60     5    56   1
    61     7    57   1
    62     7    58   1
    63    11    59   1
    64    12    60   1
    65    13    61   1
    66    13    62   1
    67    15    63   1
    68    16    64   1
    69    17    65   1
    70    18    66   1
    71    19    67   1
    72    23    68   1
    73    24    69   1
    74    28    70   1
    75    28    71   1
    76    30    72   1
    77    31    73   1
    78    33    74   1
    79    34    75   1
    80    35    76   1
    81    36    77   1
    82    36    78   1
    83    37    79   1
    84    40    80   1
    85    40    81   1
    86    42    82   1
    87    47    83   1
    88    48    84   1
    89    49    85   1
    90    50    86   1
    91    51    87   1
@<TRIPOS>SUBSTRUCTURE
     1  MOL      1

