@<TRIPOS>MOLECULE
2xy9_ligand_044
    87    91
SMALL
GAST_HUCK
****
This file was generated by PARSER (from files_GN.cpp)

@<TRIPOS>ATOM
      1 CAQ        15.9478  -12.8368  -23.0115 C.ar        1 MOL      -0.0578
      2 CAK        16.6695  -11.8738  -22.2764 C.ar        1 MOL      -0.0685
      3 CAH        17.8581  -12.2363  -21.6163 C.ar        1 MOL      -0.0687
      4 CAL        18.3227  -13.5664  -21.6926 C.ar        1 MOL      -0.0685
      5 CAR        17.6098  -14.5285  -22.4453 C.ar        1 MOL      -0.0578
      6 CBP        16.4084  -14.1743  -23.1098 C.ar        1 MOL      -0.0130
      7 CBB        15.6224  -15.1918  -23.8554 C.3         1 MOL       0.1113
      8 OBJ        15.5678  -14.8867  -25.2531 O.3         1 MOL      -0.2506
      9 CBM        14.6859  -14.0775  -25.8975 C.2         1 MOL       0.3232
     10 OAB        13.6942  -13.4326  -25.2320 O.2         1 MOL      -0.3774
     11 NBI        14.8767  -13.9292  -27.2232 N.am        1 MOL      -0.2418
     12 CBX        14.2443  -13.0061  -28.1233 C.3         1 MOL       0.1176
     13 CBE        12.6820  -12.9537  -28.0299 C.3         1 MOL       0.0205
     14 CBQ        11.9974  -14.2520  -28.2936 C.ar        1 MOL      -0.0393
     15 CAS        11.1160  -14.8195  -27.3403 C.ar        1 MOL      -0.0602
     16 CAM        10.4271  -16.0138  -27.6220 C.ar        1 MOL      -0.0686
     17 CAI        10.6143  -16.6618  -28.8547 C.ar        1 MOL      -0.0687
     18 CAN        11.4851  -16.1097  -29.8118 C.ar        1 MOL      -0.0686
     19 CAT        12.1661  -14.9083  -29.5379 C.ar        1 MOL      -0.0602
     20 PBY        14.9766  -11.4911  -28.0238 P.3         1 MOL       0.0154
     21 OAG        16.4046  -11.6988  -27.9423 O.co2       1 MOL      -0.6174
     22 OAD        14.6803  -10.8704  -26.7541 O.co2       1 MOL      -0.6174
     23 N          13.2054   -8.3783  -27.1100 N.am        1 MOL      -0.2694
     24 CA         12.4106   -8.0281  -25.9663 C.3         1 MOL       0.1024
     25 C          12.3201   -6.5475  -25.9916 C.2         1 MOL       0.0619
     26 OXT        11.2395   -5.9448  -26.5488 O.co2       1 MOL      -0.5665
     27 O          13.3092   -5.7642  -25.5035 O.co2       1 MOL      -0.5665
     28 CB         13.0734   -8.5784  -24.6553 C.3         1 MOL       0.0108
     29 CG         12.5898   -9.8670  -24.0598 C.ar        1 MOL      -0.0499
     30 CD1        13.0347  -10.1846  -22.7499 C.ar        1 MOL      -0.0686
     31 CE1        12.5037  -11.2812  -22.0499 C.ar        1 MOL      -0.0398
     32 CZ         11.5428  -12.1112  -22.6525 C.ar        1 MOL       0.0805
     33 OH         10.9816  -13.1469  -21.9751 O.3         1 MOL      -0.3376
     34 CE2        11.1410  -11.8535  -23.9755 C.ar        1 MOL      -0.0398
     35 CD2        11.6654  -10.7483  -24.6748 C.ar        1 MOL      -0.0686
     36 CBF        14.6762  -10.5380  -29.3814 C.3         1 MOL       0.0375
     37 CBV        13.7730   -9.2480  -29.3039 C.3         1 MOL       0.0788
     38 CBN        12.8757   -9.1396  -28.1460 C.2         1 MOL       0.1848
     39 OAC        11.8061   -9.7413  -28.1730 O.2         1 MOL      -0.3964
     40 CBC        14.5460   -7.9222  -29.6512 C.3         1 MOL       0.0422
     41 CBS        15.7975   -7.6388  -28.9206 C.2         1 MOL       0.1411
     42 CBA        16.7002   -6.6511  -29.2723 C.2         1 MOL      -0.0269
     43 OBK        16.3025   -8.2772  -27.8428 O.3         1 MOL      -0.1670
     44 NBG        17.4591   -7.7504  -27.5317 N.2         1 MOL      -0.1519
     45 CBU        17.7665   -6.7516  -28.3838 C.2         1 MOL       0.0430
     46 CBT        18.9650   -5.9867  -28.3598 C.ar        1 MOL      -0.0150
     47 CAU        19.3089   -5.1004  -29.4151 C.ar        1 MOL      -0.0551
     48 CAO        20.5055   -4.3594  -29.3851 C.ar        1 MOL      -0.0621
     49 CAJ        21.3806   -4.4830  -28.2948 C.ar        1 MOL      -0.0626
     50 CAP        21.0567   -5.3513  -27.2374 C.ar        1 MOL      -0.0621
     51 CAV        19.8662   -6.0995  -27.2713 C.ar        1 MOL      -0.0551
     52 H1         15.0767  -12.5590  -23.4712 H           1 MOL       0.0557
     53 H2         16.3279  -10.9110  -22.2146 H           1 MOL       0.0599
     54 H3         18.3842  -11.5357  -21.0868 H           1 MOL       0.0559
     55 H4         19.1864  -13.8294  -21.2072 H           1 MOL       0.0599
     56 H5         17.9657  -15.4897  -22.4871 H           1 MOL       0.0557
     57 H6         14.6105  -15.2579  -23.4422 H           1 MOL       0.0776
     58 H7         16.0739  -16.1854  -23.7680 H           1 MOL       0.0776
     59 H8         15.6096  -14.4433  -27.6045 H           1 MOL       0.1888
     60 H9         14.4995  -13.3853  -29.1216 H           1 MOL       0.0787
     61 H10        12.3168  -12.2515  -28.7830 H           1 MOL       0.0465
     62 H11        12.3931  -12.5581  -27.0473 H           1 MOL       0.0465
     63 H12        10.9614  -14.3582  -26.4361 H           1 MOL       0.0557
     64 H13         9.7953  -16.4145  -26.9233 H           1 MOL       0.0599
     65 H14        10.1248  -17.5379  -29.0463 H           1 MOL       0.0559
     66 H15        11.6217  -16.5802  -30.7132 H           1 MOL       0.0599
     67 H16        12.7710  -14.5048  -30.2603 H           1 MOL       0.0557
     68 H17        14.0869   -7.9714  -27.1395 H           1 MOL       0.1876
     69 H18        11.3842   -8.4044  -26.0475 H           1 MOL       0.0747
     70 H19        12.9218   -7.8190  -23.8743 H           1 MOL       0.0446
     71 H20        14.1567   -8.6718  -24.8004 H           1 MOL       0.0446
     72 H21        13.7136   -9.5808  -22.2701 H           1 MOL       0.0530
     73 H22        12.7970  -11.4452  -21.0796 H           1 MOL       0.0525
     74 H23        11.5951  -13.3072  -21.2291 H           1 MOL       0.2458
     75 H24        10.4569  -12.4669  -24.4273 H           1 MOL       0.0525
     76 H25        11.3369  -10.5896  -25.6279 H           1 MOL       0.0530
     77 H26        14.2478  -11.2012  -30.1368 H           1 MOL       0.0495
     78 H27        15.6470  -10.2648  -29.7983 H           1 MOL       0.0495
     79 H28        13.0874   -9.3385  -30.1576 H           1 MOL       0.0581
     80 H29        13.8860   -7.0607  -29.5211 H           1 MOL       0.0513
     81 H30        14.8111   -7.9574  -30.7107 H           1 MOL       0.0513
     82 H31        16.6042   -6.0056  -30.0550 H           1 MOL       0.0289
     83 H32        18.6986   -4.9861  -30.2270 H           1 MOL       0.0616
     84 H33        20.7321   -3.7254  -30.1510 H           1 MOL       0.0615
     85 H34        22.2497   -3.9424  -28.2704 H           1 MOL       0.0610
     86 H35        21.6874   -5.4329  -26.4381 H           1 MOL       0.0615
     87 H36        19.6642   -6.7210  -26.4853 H           1 MOL       0.0616
@<TRIPOS>BOND
     1     1     2  ar
     2     6     1  ar
     3     2     3  ar
     4     4     3  ar
     5     5     4  ar
     6     6     5  ar
     7     7     6   1
     8     8     7   1
     9     9     8   1
    10     9    10   2
    11    11     9  am
    12    12    11   1
    13    12    13   1
    14    20    12   1
    15    13    14   1
    16    14    15  ar
    17    14    19  ar
    18    15    16  ar
    19    16    17  ar
    20    18    17  ar
    21    19    18  ar
    22    20    21  ar
    23    20    22  ar
    24    36    20   1
    25    23    24   1
    26    38    23  am
    27    24    25   1
    28    24    28   1
    29    25    26  ar
    30    25    27  ar
    31    28    29   1
    32    29    30  ar
    33    29    35  ar
    34    30    31  ar
    35    31    32  ar
    36    32    33   1
    37    34    32  ar
    38    35    34  ar
    39    37    36   1
    40    37    38   1
    41    37    40   1
    42    38    39   2
    43    40    41   1
    44    41    42   2
    45    41    43   1
    46    42    45   1
    47    43    44   1
    48    44    45   2
    49    45    46   1
    50    46    47  ar
    51    46    51  ar
    52    47    48  ar
    53    48    49  ar
    54    49    50  ar
    55    50    51  ar
    56     1    52   1
    57     2    53   1
    58     3    54   1
    59     4    55   1
    60     5    56   1
    61     7    57   1
    62     7    58   1
    63    11    59   1
    64    12    60   1
    65    13    61   1
    66    13    62   1
    67    15    63   1
    68    16    64   1
    69    17    65   1
    70    18    66   1
    71    19    67   1
    72    23    68   1
    73    24    69   1
    74    28    70   1
    75    28    71   1
    76    30    72   1
    77    31    73   1
    78    33    74   1
    79    34    75   1
    80    35    76   1
    81    36    77   1
    82    36    78   1
    83    37    79   1
    84    40    80   1
    85    40    81   1
    86    42    82   1
    87    47    83   1
    88    48    84   1
    89    49    85   1
    90    50    86   1
    91    51    87   1
@<TRIPOS>SUBSTRUCTURE
     1  MOL      1

