@<TRIPOS>MOLECULE
2xy9_ligand_072
    87    91
SMALL
GAST_HUCK
****
This file was generated by PARSER (from files_GN.cpp)

@<TRIPOS>ATOM
      1 CAQ        15.5368   -0.3049  -16.1859 C.ar        1 MOL      -0.0578
      2 CAK        14.6991    0.0622  -15.1134 C.ar        1 MOL      -0.0685
      3 CAH        13.5420    0.8202  -15.3550 C.ar        1 MOL      -0.0687
      4 CAL        13.2216    1.2141  -16.6696 C.ar        1 MOL      -0.0685
      5 CAR        14.0616    0.8571  -17.7381 C.ar        1 MOL      -0.0578
      6 CBP        15.2332    0.0952  -17.5079 C.ar        1 MOL      -0.0130
      7 CBB        16.1039   -0.3151  -18.6335 C.3         1 MOL       0.1113
      8 OBJ        15.9040   -1.7100  -18.8973 O.3         1 MOL      -0.2506
      9 CBM        15.1869   -2.2563  -19.9151 C.2         1 MOL       0.3232
     10 OAB        14.5342   -1.4656  -20.8004 O.2         1 MOL      -0.3774
     11 NBI        15.1482   -3.6046  -20.0111 N.am        1 MOL      -0.2418
     12 CBX        14.4307   -4.3836  -20.9886 C.3         1 MOL       0.1176
     13 CBE        12.8777   -4.1443  -20.9252 C.3         1 MOL       0.0205
     14 CBQ        12.3346   -3.8252  -19.5684 C.ar        1 MOL      -0.0393
     15 CAS        12.4490   -4.7539  -18.5048 C.ar        1 MOL      -0.0602
     16 CAM        11.9804   -4.4344  -17.2167 C.ar        1 MOL      -0.0686
     17 CAI        11.3883   -3.1810  -16.9722 C.ar        1 MOL      -0.0687
     18 CAN        11.2683   -2.2459  -18.0148 C.ar        1 MOL      -0.0686
     19 CAT        11.7352   -2.5678  -19.3036 C.ar        1 MOL      -0.0602
     20 PBY        15.1287   -4.2632  -22.5235 P.3         1 MOL       0.0154
     21 OAG        16.0280   -3.1368  -22.5545 O.co2       1 MOL      -0.6174
     22 OAD        14.1930   -3.9317  -23.5688 O.co2       1 MOL      -0.6174
     23 N          15.2821   -6.8201  -26.1278 N.am        1 MOL      -0.2694
     24 CA         15.7308   -7.0618  -27.4657 C.3         1 MOL       0.1024
     25 C          16.4733   -5.8719  -27.9353 C.2         1 MOL       0.0619
     26 OXT        15.9054   -4.6442  -27.9374 O.co2       1 MOL      -0.5665
     27 O          17.7685   -5.9738  -28.3089 O.co2       1 MOL      -0.5665
     28 CB         14.5276   -7.3933  -28.3974 C.3         1 MOL       0.0108
     29 CG         13.8607   -8.6797  -28.0380 C.ar        1 MOL      -0.0499
     30 CD1        12.7978   -8.7136  -27.1061 C.ar        1 MOL      -0.0686
     31 CE1        12.1854   -9.9307  -26.7533 C.ar        1 MOL      -0.0398
     32 CZ         12.6479  -11.1399  -27.3072 C.ar        1 MOL       0.0805
     33 OH         12.0902  -12.3126  -26.9113 O.3         1 MOL      -0.3376
     34 CE2        13.6996  -11.1214  -28.2416 C.ar        1 MOL      -0.0398
     35 CD2        14.3008   -9.9019  -28.6031 C.ar        1 MOL      -0.0686
     36 CBF        16.0680   -5.5505  -23.0200 C.3         1 MOL       0.0375
     37 CBV        15.3354   -6.7777  -23.6962 C.3         1 MOL       0.0788
     38 CBN        15.9470   -7.0594  -25.0043 C.2         1 MOL       0.1848
     39 OAC        17.1083   -7.4563  -25.0369 O.2         1 MOL      -0.3964
     40 CBC        15.2047   -8.0395  -22.7656 C.3         1 MOL       0.0422
     41 CBS        15.1824   -9.3687  -23.4161 C.2         1 MOL       0.1411
     42 CBA        15.9510  -10.4746  -23.0707 C.2         1 MOL      -0.0269
     43 OBK        14.4666   -9.7195  -24.5063 O.3         1 MOL      -0.1670
     44 NBG        14.7733  -10.9478  -24.8514 N.2         1 MOL      -0.1519
     45 CBU        15.6878  -11.4665  -24.0093 C.2         1 MOL       0.0430
     46 CBT        16.2385  -12.7718  -24.0916 C.ar        1 MOL      -0.0150
     47 CAU        16.8157  -13.3977  -22.9608 C.ar        1 MOL      -0.0551
     48 CAO        17.3265  -14.7075  -23.0348 C.ar        1 MOL      -0.0621
     49 CAJ        17.2837  -15.4126  -24.2534 C.ar        1 MOL      -0.0626
     50 CAP        16.7282  -14.8048  -25.3919 C.ar        1 MOL      -0.0621
     51 CAV        16.2066  -13.4974  -25.3122 C.ar        1 MOL      -0.0551
     52 H1         16.3756   -0.8612  -15.9918 H           1 MOL       0.0557
     53 H2         14.9308   -0.2245  -14.1643 H           1 MOL       0.0599
     54 H3         12.9276    1.0839  -14.5795 H           1 MOL       0.0559
     55 H4         12.3726    1.7575  -16.8443 H           1 MOL       0.0599
     56 H5         13.8083    1.1466  -18.6826 H           1 MOL       0.0557
     57 H6         17.1549   -0.1517  -18.3753 H           1 MOL       0.0776
     58 H7         15.9059    0.2870  -19.5259 H           1 MOL       0.0776
     59 H8         15.6305   -4.1072  -19.3271 H           1 MOL       0.1888
     60 H9         14.5821   -5.4209  -20.6848 H           1 MOL       0.0787
     61 H10        12.3630   -5.0350  -21.2968 H           1 MOL       0.0465
     62 H11        12.5999   -3.3389  -21.6065 H           1 MOL       0.0465
     63 H12        12.8882   -5.6602  -18.6589 H           1 MOL       0.0557
     64 H13        12.0756   -5.1083  -16.4559 H           1 MOL       0.0599
     65 H14        11.0451   -2.9499  -16.0349 H           1 MOL       0.0559
     66 H15        10.8453   -1.3372  -17.8369 H           1 MOL       0.0599
     67 H16        11.6467   -1.8697  -20.0456 H           1 MOL       0.0557
     68 H17        14.3892   -6.4574  -26.0317 H           1 MOL       0.1876
     69 H18        16.4083   -7.9239  -27.4875 H           1 MOL       0.0747
     70 H19        14.8804   -7.4524  -29.4334 H           1 MOL       0.0446
     71 H20        13.8004   -6.5756  -28.3697 H           1 MOL       0.0446
     72 H21        12.4678   -7.8517  -26.6686 H           1 MOL       0.0530
     73 H22        11.4226   -9.9385  -26.0709 H           1 MOL       0.0525
     74 H23        12.8337  -12.9628  -26.9000 H           1 MOL       0.2458
     75 H24        14.0324  -11.9940  -28.6546 H           1 MOL       0.0525
     76 H25        15.0687   -9.9111  -29.2781 H           1 MOL       0.0530
     77 H26        16.6566   -5.8821  -22.1593 H           1 MOL       0.0495
     78 H27        16.8104   -5.1254  -23.7108 H           1 MOL       0.0495
     79 H28        14.2932   -6.4829  -23.9079 H           1 MOL       0.0581
     80 H29        14.2815   -7.9573  -22.1961 H           1 MOL       0.0513
     81 H30        16.0127   -8.0453  -22.0295 H           1 MOL       0.0513
     82 H31        16.6144  -10.5251  -22.2921 H           1 MOL       0.0289
     83 H32        16.8533  -12.9193  -22.0601 H           1 MOL       0.0616
     84 H33        17.7257  -15.1505  -22.2049 H           1 MOL       0.0615
     85 H34        17.6520  -16.3646  -24.3039 H           1 MOL       0.0610
     86 H35        16.6971  -15.3164  -26.2740 H           1 MOL       0.0615
     87 H36        15.8157  -13.0764  -26.1605 H           1 MOL       0.0616
@<TRIPOS>BOND
     1     1     2  ar
     2     6     1  ar
     3     2     3  ar
     4     4     3  ar
     5     5     4  ar
     6     6     5  ar
     7     7     6   1
     8     8     7   1
     9     9     8   1
    10     9    10   2
    11    11     9  am
    12    12    11   1
    13    12    13   1
    14    20    12   1
    15    13    14   1
    16    14    15  ar
    17    14    19  ar
    18    15    16  ar
    19    16    17  ar
    20    18    17  ar
    21    19    18  ar
    22    20    21  ar
    23    20    22  ar
    24    36    20   1
    25    23    24   1
    26    38    23  am
    27    24    25   1
    28    24    28   1
    29    25    26  ar
    30    25    27  ar
    31    28    29   1
    32    29    30  ar
    33    29    35  ar
    34    30    31  ar
    35    31    32  ar
    36    32    33   1
    37    34    32  ar
    38    35    34  ar
    39    37    36   1
    40    37    38   1
    41    37    40   1
    42    38    39   2
    43    40    41   1
    44    41    42   2
    45    41    43   1
    46    42    45   1
    47    43    44   1
    48    44    45   2
    49    45    46   1
    50    46    47  ar
    51    46    51  ar
    52    47    48  ar
    53    48    49  ar
    54    49    50  ar
    55    50    51  ar
    56     1    52   1
    57     2    53   1
    58     3    54   1
    59     4    55   1
    60     5    56   1
    61     7    57   1
    62     7    58   1
    63    11    59   1
    64    12    60   1
    65    13    61   1
    66    13    62   1
    67    15    63   1
    68    16    64   1
    69    17    65   1
    70    18    66   1
    71    19    67   1
    72    23    68   1
    73    24    69   1
    74    28    70   1
    75    28    71   1
    76    30    72   1
    77    31    73   1
    78    33    74   1
    79    34    75   1
    80    35    76   1
    81    36    77   1
    82    36    78   1
    83    37    79   1
    84    40    80   1
    85    40    81   1
    86    42    82   1
    87    47    83   1
    88    48    84   1
    89    49    85   1
    90    50    86   1
    91    51    87   1
@<TRIPOS>SUBSTRUCTURE
     1  MOL      1

