@<TRIPOS>MOLECULE
2xy9_ligand_011
    87    91
SMALL
GAST_HUCK
****
This file was generated by PARSER (from files_GN.cpp)

@<TRIPOS>ATOM
      1 CAQ        13.5908  -14.1636  -28.8802 C.ar        1 MOL      -0.0578
      2 CAK        13.6552  -15.1216  -29.9156 C.ar        1 MOL      -0.0685
      3 CAH        12.6069  -16.0469  -30.0920 C.ar        1 MOL      -0.0687
      4 CAL        11.5046  -16.0291  -29.2150 C.ar        1 MOL      -0.0685
      5 CAR        11.4387  -15.0748  -28.1847 C.ar        1 MOL      -0.0578
      6 CBP        12.4784  -14.1275  -28.0004 C.ar        1 MOL      -0.0130
      7 CBB        12.3409  -13.1482  -26.8884 C.3         1 MOL       0.1113
      8 OBJ        13.4108  -12.2139  -26.6891 O.3         1 MOL      -0.2506
      9 CBM        13.8470  -11.2706  -27.5604 C.2         1 MOL       0.3232
     10 OAB        13.2737  -11.1611  -28.7827 O.2         1 MOL      -0.3774
     11 NBI        14.9047  -10.5141  -27.1825 N.am        1 MOL      -0.2418
     12 CBX        15.7211   -9.6771  -28.0286 C.3         1 MOL       0.1176
     13 CBE        16.4616  -10.5808  -29.0731 C.3         1 MOL       0.0205
     14 CBQ        17.6899   -9.9944  -29.6844 C.ar        1 MOL      -0.0393
     15 CAS        18.7753   -9.6368  -28.8571 C.ar        1 MOL      -0.0602
     16 CAM        19.9978   -9.1996  -29.4133 C.ar        1 MOL      -0.0686
     17 CAI        20.1447   -9.1200  -30.8178 C.ar        1 MOL      -0.0687
     18 CAN        19.0658   -9.4695  -31.6534 C.ar        1 MOL      -0.0686
     19 CAT        17.8407   -9.8964  -31.0926 C.ar        1 MOL      -0.0602
     20 PBY        14.9048   -8.3447  -28.6664 P.3         1 MOL       0.0154
     21 OAG        13.6218   -8.1619  -28.0254 O.co2       1 MOL      -0.6174
     22 OAD        14.6171   -8.5315  -30.0699 O.co2       1 MOL      -0.6174
     23 N          13.9154   -5.6379  -26.7619 N.am        1 MOL      -0.2694
     24 CA         13.1326   -5.1497  -25.6574 C.3         1 MOL       0.1024
     25 C          11.7403   -4.8232  -26.0445 C.2         1 MOL       0.0619
     26 OXT        10.9418   -5.8120  -26.5042 O.co2       1 MOL      -0.5665
     27 O          11.1701   -3.6426  -25.7218 O.co2       1 MOL      -0.5665
     28 CB         13.8781   -4.0032  -24.9068 C.3         1 MOL       0.0108
     29 CG         15.2147   -4.4569  -24.4467 C.ar        1 MOL      -0.0499
     30 CD1        16.3576   -4.2681  -25.2647 C.ar        1 MOL      -0.0686
     31 CE1        17.5811   -4.8662  -24.9260 C.ar        1 MOL      -0.0398
     32 CZ         17.6932   -5.6239  -23.7492 C.ar        1 MOL       0.0805
     33 OH         18.8787   -6.1903  -23.4352 O.3         1 MOL      -0.3376
     34 CE2        16.5746   -5.7879  -22.9057 C.ar        1 MOL      -0.0398
     35 CD2        15.3429   -5.2188  -23.2645 C.ar        1 MOL      -0.0686
     36 CBF        15.8258   -6.9516  -28.5226 C.3         1 MOL       0.0375
     37 CBV        15.1213   -5.6003  -28.9270 C.3         1 MOL       0.0788
     38 CBN        14.1719   -5.0571  -27.9331 C.2         1 MOL       0.1848
     39 OAC        13.5923   -4.0086  -28.2103 O.2         1 MOL      -0.3964
     40 CBC        16.2016   -4.5212  -29.2975 C.3         1 MOL       0.0422
     41 CBS        17.0297   -4.9068  -30.4581 C.2         1 MOL       0.1411
     42 CBA        18.4112   -5.0208  -30.5207 C.2         1 MOL      -0.0269
     43 OBK        16.5407   -5.2677  -31.6655 O.3         1 MOL      -0.1670
     44 NBG        17.5371   -5.5960  -32.4472 N.2         1 MOL      -0.1519
     45 CBU        18.7151   -5.4737  -31.8039 C.2         1 MOL       0.0430
     46 CBT        19.9849   -5.7486  -32.3821 C.ar        1 MOL      -0.0150
     47 CAU        21.2020   -5.4454  -31.7195 C.ar        1 MOL      -0.0551
     48 CAO        22.4429   -5.7072  -32.3214 C.ar        1 MOL      -0.0621
     49 CAJ        22.4982   -6.2777  -33.6081 C.ar        1 MOL      -0.0626
     50 CAP        21.3047   -6.5992  -34.2769 C.ar        1 MOL      -0.0621
     51 CAV        20.0663   -6.3386  -33.6714 C.ar        1 MOL      -0.0551
     52 H1         14.3736  -13.5106  -28.7795 H           1 MOL       0.0557
     53 H2         14.4616  -15.1457  -30.5390 H           1 MOL       0.0599
     54 H3         12.6521  -16.7395  -30.8425 H           1 MOL       0.0559
     55 H4         10.7486  -16.7105  -29.3283 H           1 MOL       0.0599
     56 H5         10.6213  -15.0690  -27.5593 H           1 MOL       0.0557
     57 H6         12.2457  -13.6989  -25.9503 H           1 MOL       0.0776
     58 H7         11.4280  -12.5703  -27.0301 H           1 MOL       0.0776
     59 H8         15.2304  -10.6486  -26.2747 H           1 MOL       0.1888
     60 H9         16.5073   -9.3091  -27.3548 H           1 MOL       0.0787
     61 H10        15.7680  -10.9023  -29.8543 H           1 MOL       0.0465
     62 H11        16.7914  -11.4903  -28.5755 H           1 MOL       0.0465
     63 H12        18.6928   -9.7172  -27.8386 H           1 MOL       0.0557
     64 H13        20.7856   -8.9730  -28.8086 H           1 MOL       0.0599
     65 H14        21.0421   -8.8246  -31.2271 H           1 MOL       0.0559
     66 H15        19.1760   -9.4365  -32.6742 H           1 MOL       0.0599
     67 H16        17.0771  -10.1680  -31.7196 H           1 MOL       0.0557
     68 H17        14.3447   -6.4937  -26.6021 H           1 MOL       0.1876
     69 H18        13.0466   -5.9868  -24.9555 H           1 MOL       0.0747
     70 H19        13.2970   -3.6782  -24.0406 H           1 MOL       0.0446
     71 H20        13.9715   -3.1377  -25.5694 H           1 MOL       0.0446
     72 H21        16.2898   -3.7315  -26.1287 H           1 MOL       0.0530
     73 H22        18.3866   -4.7592  -25.5506 H           1 MOL       0.0525
     74 H23        18.9286   -6.1487  -22.4584 H           1 MOL       0.2458
     75 H24        16.6525   -6.3473  -22.0528 H           1 MOL       0.0525
     76 H25        14.5285   -5.3885  -22.6673 H           1 MOL       0.0530
     77 H26        16.6985   -7.1283  -29.1580 H           1 MOL       0.0495
     78 H27        16.1984   -6.8730  -27.4939 H           1 MOL       0.0495
     79 H28        14.5328   -5.7783  -29.8345 H           1 MOL       0.0581
     80 H29        16.8415   -4.3320  -28.4331 H           1 MOL       0.0513
     81 H30        15.7225   -3.5743  -29.5674 H           1 MOL       0.0513
     82 H31        19.0613   -4.8402  -29.7560 H           1 MOL       0.0289
     83 H32        21.1969   -5.0149  -30.7913 H           1 MOL       0.0616
     84 H33        23.3119   -5.4776  -31.8327 H           1 MOL       0.0615
     85 H34        23.3978   -6.4575  -34.0530 H           1 MOL       0.0610
     86 H35        21.3403   -7.0209  -35.2087 H           1 MOL       0.0615
     87 H36        19.2186   -6.5853  -34.1837 H           1 MOL       0.0616
@<TRIPOS>BOND
     1     1     2  ar
     2     6     1  ar
     3     2     3  ar
     4     4     3  ar
     5     5     4  ar
     6     6     5  ar
     7     7     6   1
     8     8     7   1
     9     9     8   1
    10     9    10   2
    11    11     9  am
    12    12    11   1
    13    12    13   1
    14    20    12   1
    15    13    14   1
    16    14    15  ar
    17    14    19  ar
    18    15    16  ar
    19    16    17  ar
    20    18    17  ar
    21    19    18  ar
    22    20    21  ar
    23    20    22  ar
    24    36    20   1
    25    23    24   1
    26    38    23  am
    27    24    25   1
    28    24    28   1
    29    25    26  ar
    30    25    27  ar
    31    28    29   1
    32    29    30  ar
    33    29    35  ar
    34    30    31  ar
    35    31    32  ar
    36    32    33   1
    37    34    32  ar
    38    35    34  ar
    39    37    36   1
    40    37    38   1
    41    37    40   1
    42    38    39   2
    43    40    41   1
    44    41    42   2
    45    41    43   1
    46    42    45   1
    47    43    44   1
    48    44    45   2
    49    45    46   1
    50    46    47  ar
    51    46    51  ar
    52    47    48  ar
    53    48    49  ar
    54    49    50  ar
    55    50    51  ar
    56     1    52   1
    57     2    53   1
    58     3    54   1
    59     4    55   1
    60     5    56   1
    61     7    57   1
    62     7    58   1
    63    11    59   1
    64    12    60   1
    65    13    61   1
    66    13    62   1
    67    15    63   1
    68    16    64   1
    69    17    65   1
    70    18    66   1
    71    19    67   1
    72    23    68   1
    73    24    69   1
    74    28    70   1
    75    28    71   1
    76    30    72   1
    77    31    73   1
    78    33    74   1
    79    34    75   1
    80    35    76   1
    81    36    77   1
    82    36    78   1
    83    37    79   1
    84    40    80   1
    85    40    81   1
    86    42    82   1
    87    47    83   1
    88    48    84   1
    89    49    85   1
    90    50    86   1
    91    51    87   1
@<TRIPOS>SUBSTRUCTURE
     1  MOL      1

