@<TRIPOS>MOLECULE
2xy9_ligand_031
    87    91
SMALL
GAST_HUCK
****
This file was generated by PARSER (from files_GN.cpp)

@<TRIPOS>ATOM
      1 CAQ        10.5473  -14.1905  -20.2245 C.ar        1 MOL      -0.0578
      2 CAK        10.4174  -15.4454  -19.6043 C.ar        1 MOL      -0.0685
      3 CAH         9.6412  -15.5810  -18.4403 C.ar        1 MOL      -0.0687
      4 CAL         9.0005  -14.4557  -17.8936 C.ar        1 MOL      -0.0685
      5 CAR         9.1482  -13.1938  -18.5004 C.ar        1 MOL      -0.0578
      6 CBP         9.9292  -13.0438  -19.6707 C.ar        1 MOL      -0.0130
      7 CBB        10.0737  -11.7289  -20.3415 C.3         1 MOL       0.1113
      8 OBJ        11.4512  -11.4921  -20.6640 O.3         1 MOL      -0.2506
      9 CBM        12.0052  -11.3489  -21.8991 C.2         1 MOL       0.3232
     10 OAB        11.2274  -11.3479  -23.0097 O.2         1 MOL      -0.3774
     11 NBI        13.3560  -11.2879  -21.9724 N.am        1 MOL      -0.2418
     12 CBX        14.1714  -11.2691  -23.1619 C.3         1 MOL       0.1176
     13 CBE        13.7811  -12.3982  -24.1958 C.3         1 MOL       0.0205
     14 CBQ        14.8968  -13.2659  -24.6918 C.ar        1 MOL      -0.0393
     15 CAS        14.8689  -14.6717  -24.5003 C.ar        1 MOL      -0.0602
     16 CAM        15.9049  -15.4928  -24.9888 C.ar        1 MOL      -0.0686
     17 CAI        16.9912  -14.9260  -25.6750 C.ar        1 MOL      -0.0687
     18 CAN        17.0273  -13.5401  -25.8964 C.ar        1 MOL      -0.0686
     19 CAT        15.9858  -12.7250  -25.4175 C.ar        1 MOL      -0.0602
     20 PBY        14.2613   -9.7027  -23.7684 P.3         1 MOL       0.0154
     21 OAG        12.9346   -9.1972  -24.0279 O.co2       1 MOL      -0.6174
     22 OAD        14.8801   -9.6994  -25.0697 O.co2       1 MOL      -0.6174
     23 N          13.7270   -6.1632  -23.9931 N.am        1 MOL      -0.2694
     24 CA         12.7469   -5.4156  -24.7279 C.3         1 MOL       0.1024
     25 C          12.1076   -6.1543  -25.8432 C.2         1 MOL       0.0619
     26 OXT        10.9342   -5.7153  -26.3466 O.co2       1 MOL      -0.5665
     27 O          12.5424   -7.3597  -26.2747 O.co2       1 MOL      -0.5665
     28 CB         13.1948   -3.9616  -25.0788 C.3         1 MOL       0.0108
     29 CG         14.2082   -3.8122  -26.1621 C.ar        1 MOL      -0.0499
     30 CD1        15.5789   -3.6246  -25.8565 C.ar        1 MOL      -0.0686
     31 CE1        16.5287   -3.4703  -26.8830 C.ar        1 MOL      -0.0398
     32 CZ         16.1240   -3.4759  -28.2324 C.ar        1 MOL       0.0805
     33 OH         17.0270   -3.3056  -29.2322 O.3         1 MOL      -0.3376
     34 CE2        14.7634   -3.6497  -28.5486 C.ar        1 MOL      -0.0398
     35 CD2        13.8146   -3.8201  -27.5224 C.ar        1 MOL      -0.0686
     36 CBF        15.0425   -8.6100  -22.7627 C.3         1 MOL       0.0375
     37 CBV        15.7442   -7.3820  -23.4439 C.3         1 MOL       0.0788
     38 CBN        14.8966   -6.6467  -24.3914 C.2         1 MOL       0.1848
     39 OAC        15.2439   -6.5718  -25.5643 O.2         1 MOL      -0.3964
     40 CBC        16.4308   -6.4247  -22.4110 C.3         1 MOL       0.0422
     41 CBS        15.5495   -5.5159  -21.6442 C.2         1 MOL       0.1411
     42 CBA        15.7418   -4.1630  -21.3967 C.2         1 MOL      -0.0269
     43 OBK        14.3785   -5.8593  -21.0623 O.3         1 MOL      -0.1670
     44 NBG        13.8504   -4.8059  -20.4948 N.2         1 MOL      -0.1519
     45 CBU        14.6405   -3.7266  -20.6646 C.2         1 MOL       0.0430
     46 CBT        14.3688   -2.4312  -20.1534 C.ar        1 MOL      -0.0150
     47 CAU        15.4139   -1.5097  -19.8978 C.ar        1 MOL      -0.0551
     48 CAO        15.1437   -0.2370  -19.3629 C.ar        1 MOL      -0.0621
     49 CAJ        13.8210    0.1366  -19.0704 C.ar        1 MOL      -0.0626
     50 CAP        12.7691   -0.7622  -19.3191 C.ar        1 MOL      -0.0621
     51 CAV        13.0415   -2.0366  -19.8517 C.ar        1 MOL      -0.0551
     52 H1         11.1017  -14.1186  -21.0801 H           1 MOL       0.0557
     53 H2         10.8853  -16.2586  -20.0022 H           1 MOL       0.0599
     54 H3          9.5394  -16.4964  -17.9953 H           1 MOL       0.0559
     55 H4          8.4271  -14.5578  -17.0560 H           1 MOL       0.0599
     56 H5          8.6675  -12.3892  -18.0929 H           1 MOL       0.0557
     57 H6          9.7271  -10.9118  -19.7043 H           1 MOL       0.0776
     58 H7          9.4518  -11.7340  -21.2359 H           1 MOL       0.0776
     59 H8         13.8277  -11.3669  -21.1250 H           1 MOL       0.1888
     60 H9         15.1825  -11.4928  -22.8022 H           1 MOL       0.0787
     61 H10        13.2846  -11.9649  -25.0668 H           1 MOL       0.0465
     62 H11        13.0369  -13.0464  -23.7269 H           1 MOL       0.0465
     63 H12        14.0851  -15.1161  -24.0126 H           1 MOL       0.0557
     64 H13        15.8671  -16.5055  -24.8451 H           1 MOL       0.0599
     65 H14        17.7463  -15.5201  -26.0196 H           1 MOL       0.0559
     66 H15        17.8034  -13.1220  -26.4094 H           1 MOL       0.0599
     67 H16        16.0343  -11.7266  -25.6137 H           1 MOL       0.0557
     68 H17        13.4752   -6.3681  -23.0777 H           1 MOL       0.1876
     69 H18        11.9454   -5.2911  -23.9968 H           1 MOL       0.0747
     70 H19        13.5689   -3.4983  -24.1604 H           1 MOL       0.0446
     71 H20        12.3126   -3.3765  -25.3602 H           1 MOL       0.0446
     72 H21        15.8968   -3.6106  -24.8859 H           1 MOL       0.0530
     73 H22        17.5177   -3.3538  -26.6492 H           1 MOL       0.0525
     74 H23        17.7037   -2.6788  -28.8917 H           1 MOL       0.2458
     75 H24        14.4586   -3.6470  -29.5253 H           1 MOL       0.0525
     76 H25        12.8305   -3.9310  -27.7754 H           1 MOL       0.0530
     77 H26        15.8114   -9.1671  -22.2198 H           1 MOL       0.0495
     78 H27        14.3178   -8.2702  -22.0200 H           1 MOL       0.0495
     79 H28        16.5802   -7.8128  -24.0110 H           1 MOL       0.0581
     80 H29        17.1738   -5.8219  -22.9435 H           1 MOL       0.0513
     81 H30        16.9807   -7.0283  -21.6881 H           1 MOL       0.0513
     82 H31        16.5451   -3.6028  -21.7045 H           1 MOL       0.0289
     83 H32        16.3870   -1.7661  -20.0700 H           1 MOL       0.0616
     84 H33        15.9102    0.4103  -19.1735 H           1 MOL       0.0615
     85 H34        13.6239    1.0593  -18.6757 H           1 MOL       0.0610
     86 H35        11.8082   -0.4915  -19.1039 H           1 MOL       0.0615
     87 H36        12.2573   -2.6695  -20.0290 H           1 MOL       0.0616
@<TRIPOS>BOND
     1     1     2  ar
     2     6     1  ar
     3     2     3  ar
     4     4     3  ar
     5     5     4  ar
     6     6     5  ar
     7     7     6   1
     8     8     7   1
     9     9     8   1
    10     9    10   2
    11    11     9  am
    12    12    11   1
    13    12    13   1
    14    20    12   1
    15    13    14   1
    16    14    15  ar
    17    14    19  ar
    18    15    16  ar
    19    16    17  ar
    20    18    17  ar
    21    19    18  ar
    22    20    21  ar
    23    20    22  ar
    24    36    20   1
    25    23    24   1
    26    38    23  am
    27    24    25   1
    28    24    28   1
    29    25    26  ar
    30    25    27  ar
    31    28    29   1
    32    29    30  ar
    33    29    35  ar
    34    30    31  ar
    35    31    32  ar
    36    32    33   1
    37    34    32  ar
    38    35    34  ar
    39    37    36   1
    40    37    38   1
    41    37    40   1
    42    38    39   2
    43    40    41   1
    44    41    42   2
    45    41    43   1
    46    42    45   1
    47    43    44   1
    48    44    45   2
    49    45    46   1
    50    46    47  ar
    51    46    51  ar
    52    47    48  ar
    53    48    49  ar
    54    49    50  ar
    55    50    51  ar
    56     1    52   1
    57     2    53   1
    58     3    54   1
    59     4    55   1
    60     5    56   1
    61     7    57   1
    62     7    58   1
    63    11    59   1
    64    12    60   1
    65    13    61   1
    66    13    62   1
    67    15    63   1
    68    16    64   1
    69    17    65   1
    70    18    66   1
    71    19    67   1
    72    23    68   1
    73    24    69   1
    74    28    70   1
    75    28    71   1
    76    30    72   1
    77    31    73   1
    78    33    74   1
    79    34    75   1
    80    35    76   1
    81    36    77   1
    82    36    78   1
    83    37    79   1
    84    40    80   1
    85    40    81   1
    86    42    82   1
    87    47    83   1
    88    48    84   1
    89    49    85   1
    90    50    86   1
    91    51    87   1
@<TRIPOS>SUBSTRUCTURE
     1  MOL      1

