@<TRIPOS>MOLECULE
2xy9_ligand_058
    87    91
SMALL
GAST_HUCK
****
This file was generated by PARSER (from files_GN.cpp)

@<TRIPOS>ATOM
      1 CAQ        21.4801   -5.7474  -31.7935 C.ar        1 MOL      -0.0578
      2 CAK        21.7858   -6.4243  -32.9876 C.ar        1 MOL      -0.0685
      3 CAH        22.9047   -6.0427  -33.7486 C.ar        1 MOL      -0.0687
      4 CAL        23.7142   -4.9777  -33.3159 C.ar        1 MOL      -0.0685
      5 CAR        23.4069   -4.3006  -32.1215 C.ar        1 MOL      -0.0578
      6 CBP        22.2884   -4.6754  -31.3393 C.ar        1 MOL      -0.0130
      7 CBB        22.0077   -3.9325  -30.0793 C.3         1 MOL       0.1113
      8 OBJ        20.7041   -4.1969  -29.5423 O.3         1 MOL      -0.2506
      9 CBM        20.3752   -4.6213  -28.2937 C.2         1 MOL       0.3232
     10 OAB        21.3271   -4.8271  -27.3522 O.2         1 MOL      -0.3774
     11 NBI        19.0687   -4.8738  -28.0509 N.am        1 MOL      -0.2418
     12 CBX        18.5070   -5.3275  -26.8060 C.3         1 MOL       0.1176
     13 CBE        17.2731   -4.3980  -26.4891 C.3         1 MOL       0.0205
     14 CBQ        16.7217   -4.2372  -25.1050 C.ar        1 MOL      -0.0393
     15 CAS        16.8224   -5.2271  -24.0916 C.ar        1 MOL      -0.0602
     16 CAM        16.2166   -5.0396  -22.8280 C.ar        1 MOL      -0.0686
     17 CAI        15.5035   -3.8582  -22.5497 C.ar        1 MOL      -0.0687
     18 CAN        15.3911   -2.8653  -23.5365 C.ar        1 MOL      -0.0686
     19 CAT        15.9847   -3.0607  -24.8007 C.ar        1 MOL      -0.0602
     20 PBY        18.2715   -6.9847  -26.9749 P.3         1 MOL       0.0154
     21 OAG        18.3516   -7.6224  -25.6849 O.co2       1 MOL      -0.6174
     22 OAD        19.4476   -7.5657  -27.5783 O.co2       1 MOL      -0.6174
     23 N          15.8159  -10.4068  -25.7728 N.am        1 MOL      -0.2694
     24 CA         15.6709  -10.8749  -24.4207 C.3         1 MOL       0.1024
     25 C          15.4399  -12.3409  -24.4652 C.2         1 MOL       0.0619
     26 OXT        15.8198  -13.1046  -23.4183 O.co2       1 MOL      -0.5665
     27 O          14.5385  -12.8784  -25.3225 O.co2       1 MOL      -0.5665
     28 CB         14.6570  -10.1718  -23.4600 C.3         1 MOL       0.0108
     29 CG         13.2232  -10.1683  -23.8736 C.ar        1 MOL      -0.0499
     30 CD1        12.3074  -11.1032  -23.3288 C.ar        1 MOL      -0.0686
     31 CE1        10.9350  -11.0337  -23.6267 C.ar        1 MOL      -0.0398
     32 CZ         10.4455  -10.0223  -24.4770 C.ar        1 MOL       0.0805
     33 OH          9.1222   -9.8810  -24.7365 O.3         1 MOL      -0.3376
     34 CE2        11.3440   -9.1018  -25.0440 C.ar        1 MOL      -0.0398
     35 CD2        12.7134   -9.1611  -24.7309 C.ar        1 MOL      -0.0686
     36 CBF        16.9526   -7.5059  -27.8776 C.3         1 MOL       0.0375
     37 CBV        16.4059   -8.9526  -27.6051 C.3         1 MOL       0.0788
     38 CBN        15.9465   -9.1659  -26.2262 C.2         1 MOL       0.1848
     39 OAC        15.6906   -8.1920  -25.5188 O.2         1 MOL      -0.3964
     40 CBC        15.3155   -9.3174  -28.6796 C.3         1 MOL       0.0422
     41 CBS        14.4505  -10.4868  -28.4053 C.2         1 MOL       0.1411
     42 CBA        14.4216  -11.7212  -29.0397 C.2         1 MOL      -0.0269
     43 OBK        13.4461  -10.4889  -27.5004 O.3         1 MOL      -0.1670
     44 NBG        12.8203  -11.6338  -27.5433 N.2         1 MOL      -0.1519
     45 CBU        13.3651  -12.4419  -28.4776 C.2         1 MOL       0.0430
     46 CBT        12.8793  -13.7407  -28.8071 C.ar        1 MOL      -0.0150
     47 CAU        13.4065  -14.4867  -29.8931 C.ar        1 MOL      -0.0551
     48 CAO        12.8861  -15.7526  -30.2285 C.ar        1 MOL      -0.0621
     49 CAJ        11.8294  -16.2973  -29.4823 C.ar        1 MOL      -0.0626
     50 CAP        11.2905  -15.5804  -28.4030 C.ar        1 MOL      -0.0621
     51 CAV        11.8100  -14.3137  -28.0705 C.ar        1 MOL      -0.0551
     52 H1         20.6677   -6.0521  -31.2543 H           1 MOL       0.0557
     53 H2         21.1946   -7.1976  -33.3026 H           1 MOL       0.0599
     54 H3         23.1300   -6.5383  -34.6141 H           1 MOL       0.0559
     55 H4         24.5272   -4.6948  -33.8729 H           1 MOL       0.0599
     56 H5         24.0000   -3.5203  -31.8294 H           1 MOL       0.0557
     57 H6         22.0559   -2.8589  -30.2748 H           1 MOL       0.0776
     58 H7         22.7833   -4.1764  -29.3526 H           1 MOL       0.0776
     59 H8         18.4547   -4.7534  -28.7951 H           1 MOL       0.1888
     60 H9         19.2332   -5.1848  -26.0023 H           1 MOL       0.0787
     61 H10        16.4373   -4.6626  -27.1324 H           1 MOL       0.0465
     62 H11        17.5779   -3.3905  -26.8012 H           1 MOL       0.0465
     63 H12        17.3336   -6.0905  -24.2610 H           1 MOL       0.0557
     64 H13        16.2897   -5.7633  -22.1160 H           1 MOL       0.0599
     65 H14        15.0635   -3.7279  -21.6329 H           1 MOL       0.0559
     66 H15        14.8835   -2.0027  -23.3329 H           1 MOL       0.0599
     67 H16        15.8828   -2.3112  -25.4997 H           1 MOL       0.0557
     68 H17        16.0270  -11.1029  -26.4205 H           1 MOL       0.1876
     69 H18        16.6600  -10.7326  -23.9700 H           1 MOL       0.0747
     70 H19        14.9865   -9.1450  -23.2761 H           1 MOL       0.0446
     71 H20        14.7298  -10.6530  -22.4802 H           1 MOL       0.0446
     72 H21        12.6381  -11.8283  -22.6867 H           1 MOL       0.0530
     73 H22        10.2915  -11.7076  -23.2127 H           1 MOL       0.0525
     74 H23         8.6571  -10.4251  -24.0684 H           1 MOL       0.2458
     75 H24        10.9969   -8.3601  -25.6572 H           1 MOL       0.0525
     76 H25        13.3291   -8.4374  -25.1138 H           1 MOL       0.0530
     77 H26        17.2203   -7.4182  -28.9398 H           1 MOL       0.0495
     78 H27        16.1240   -6.8156  -27.7131 H           1 MOL       0.0495
     79 H28        17.2608   -9.6227  -27.7730 H           1 MOL       0.0581
     80 H29        15.8261   -9.4709  -29.6337 H           1 MOL       0.0513
     81 H30        14.6389   -8.4684  -28.8152 H           1 MOL       0.0513
     82 H31        15.0482  -12.0226  -29.7858 H           1 MOL       0.0289
     83 H32        14.1638  -14.1155  -30.4698 H           1 MOL       0.0616
     84 H33        13.2743  -16.2755  -31.0176 H           1 MOL       0.0615
     85 H34        11.4532  -17.2207  -29.7197 H           1 MOL       0.0610
     86 H35        10.5203  -15.9750  -27.8594 H           1 MOL       0.0615
     87 H36        11.3855  -13.8117  -27.2872 H           1 MOL       0.0616
@<TRIPOS>BOND
     1     1     2  ar
     2     6     1  ar
     3     2     3  ar
     4     4     3  ar
     5     5     4  ar
     6     6     5  ar
     7     7     6   1
     8     8     7   1
     9     9     8   1
    10     9    10   2
    11    11     9  am
    12    12    11   1
    13    12    13   1
    14    20    12   1
    15    13    14   1
    16    14    15  ar
    17    14    19  ar
    18    15    16  ar
    19    16    17  ar
    20    18    17  ar
    21    19    18  ar
    22    20    21  ar
    23    20    22  ar
    24    36    20   1
    25    23    24   1
    26    38    23  am
    27    24    25   1
    28    24    28   1
    29    25    26  ar
    30    25    27  ar
    31    28    29   1
    32    29    30  ar
    33    29    35  ar
    34    30    31  ar
    35    31    32  ar
    36    32    33   1
    37    34    32  ar
    38    35    34  ar
    39    37    36   1
    40    37    38   1
    41    37    40   1
    42    38    39   2
    43    40    41   1
    44    41    42   2
    45    41    43   1
    46    42    45   1
    47    43    44   1
    48    44    45   2
    49    45    46   1
    50    46    47  ar
    51    46    51  ar
    52    47    48  ar
    53    48    49  ar
    54    49    50  ar
    55    50    51  ar
    56     1    52   1
    57     2    53   1
    58     3    54   1
    59     4    55   1
    60     5    56   1
    61     7    57   1
    62     7    58   1
    63    11    59   1
    64    12    60   1
    65    13    61   1
    66    13    62   1
    67    15    63   1
    68    16    64   1
    69    17    65   1
    70    18    66   1
    71    19    67   1
    72    23    68   1
    73    24    69   1
    74    28    70   1
    75    28    71   1
    76    30    72   1
    77    31    73   1
    78    33    74   1
    79    34    75   1
    80    35    76   1
    81    36    77   1
    82    36    78   1
    83    37    79   1
    84    40    80   1
    85    40    81   1
    86    42    82   1
    87    47    83   1
    88    48    84   1
    89    49    85   1
    90    50    86   1
    91    51    87   1
@<TRIPOS>SUBSTRUCTURE
     1  MOL      1

