@<TRIPOS>MOLECULE
2xy9_ligand_050
    87    91
SMALL
GAST_HUCK
****
This file was generated by PARSER (from files_GN.cpp)

@<TRIPOS>ATOM
      1 CAQ        16.3438   -5.1796  -23.4502 C.ar        1 MOL      -0.0578
      2 CAK        16.4107   -6.3570  -22.6836 C.ar        1 MOL      -0.0685
      3 CAH        15.5015   -6.5609  -21.6318 C.ar        1 MOL      -0.0687
      4 CAL        14.5287   -5.5879  -21.3483 C.ar        1 MOL      -0.0685
      5 CAR        14.4413   -4.4259  -22.1358 C.ar        1 MOL      -0.0578
      6 CBP        15.3438   -4.2100  -23.2013 C.ar        1 MOL      -0.0130
      7 CBB        15.2687   -2.9757  -24.0235 C.3         1 MOL       0.1113
      8 OBJ        15.5538   -3.2751  -25.3982 O.3         1 MOL      -0.2506
      9 CBM        14.6947   -3.4968  -26.4141 C.2         1 MOL       0.3232
     10 OAB        13.3520   -3.4550  -26.2160 O.2         1 MOL      -0.3774
     11 NBI        15.2510   -4.0279  -27.5282 N.am        1 MOL      -0.2418
     12 CBX        14.5499   -4.6920  -28.5882 C.3         1 MOL       0.1176
     13 CBE        15.0566   -4.1627  -29.9701 C.3         1 MOL       0.0205
     14 CBQ        16.4659   -4.5135  -30.3329 C.ar        1 MOL      -0.0393
     15 CAS        17.5631   -3.8589  -29.7233 C.ar        1 MOL      -0.0602
     16 CAM        18.8822   -4.2851  -29.9684 C.ar        1 MOL      -0.0686
     17 CAI        19.1253   -5.3641  -30.8357 C.ar        1 MOL      -0.0687
     18 CAN        18.0492   -6.0086  -31.4694 C.ar        1 MOL      -0.0686
     19 CAT        16.7320   -5.5784  -31.2294 C.ar        1 MOL      -0.0602
     20 PBY        14.6548   -6.3517  -28.3623 P.3         1 MOL       0.0154
     21 OAG        15.9988   -6.7861  -28.6380 O.co2       1 MOL      -0.6174
     22 OAD        13.7896   -7.0027  -29.3175 O.co2       1 MOL      -0.6174
     23 N          12.8727  -10.0575  -25.7353 N.am        1 MOL      -0.2694
     24 CA         11.8949  -11.0973  -25.8954 C.3         1 MOL       0.1024
     25 C          10.8072  -10.8058  -24.9274 C.2         1 MOL       0.0619
     26 OXT         9.9933   -9.7489  -25.1430 O.co2       1 MOL      -0.5665
     27 O          10.5959  -11.5289  -23.8059 O.co2       1 MOL      -0.5665
     28 CB         12.5787  -12.5032  -25.7495 C.3         1 MOL       0.0108
     29 CG         12.2608  -13.4580  -26.8502 C.ar        1 MOL      -0.0499
     30 CD1        12.9797  -13.4150  -28.0699 C.ar        1 MOL      -0.0686
     31 CE1        12.7203  -14.3484  -29.0902 C.ar        1 MOL      -0.0398
     32 CZ         11.7310  -15.3326  -28.9133 C.ar        1 MOL       0.0805
     33 OH         11.4731  -16.2275  -29.8994 O.3         1 MOL      -0.3376
     34 CE2        10.9885  -15.3680  -27.7191 C.ar        1 MOL      -0.0398
     35 CD2        11.2515  -14.4374  -26.6950 C.ar        1 MOL      -0.0686
     36 CBF        14.2531   -6.8120  -26.8015 C.3         1 MOL       0.0375
     37 CBV        14.4006   -8.3016  -26.3367 C.3         1 MOL       0.0788
     38 CBN        13.2400   -9.1417  -26.6233 C.2         1 MOL       0.1848
     39 OAC        12.7307   -9.0978  -27.7368 O.2         1 MOL      -0.3964
     40 CBC        15.7212   -8.9982  -26.7986 C.3         1 MOL       0.0422
     41 CBS        16.0554  -10.2051  -26.0283 C.2         1 MOL       0.1411
     42 CBA        16.3655  -10.2367  -24.6821 C.2         1 MOL      -0.0269
     43 OBK        16.1018  -11.4734  -26.4919 O.3         1 MOL      -0.1670
     44 NBG        16.4089  -12.2700  -25.5027 N.2         1 MOL      -0.1519
     45 CBU        16.5760  -11.5694  -24.3598 C.2         1 MOL       0.0430
     46 CBT        16.9279  -12.1037  -23.0953 C.ar        1 MOL      -0.0150
     47 CAU        16.8534  -11.3253  -21.9128 C.ar        1 MOL      -0.0551
     48 CAO        17.2615  -11.8495  -20.6747 C.ar        1 MOL      -0.0621
     49 CAJ        17.7608  -13.1611  -20.6004 C.ar        1 MOL      -0.0626
     50 CAP        17.8157  -13.9591  -21.7574 C.ar        1 MOL      -0.0621
     51 CAV        17.3891  -13.4382  -22.9920 C.ar        1 MOL      -0.0551
     52 H1         17.0237   -5.0454  -24.2021 H           1 MOL       0.0557
     53 H2         17.1267   -7.0589  -22.8874 H           1 MOL       0.0599
     54 H3         15.5499   -7.4143  -21.0709 H           1 MOL       0.0559
     55 H4         13.8863   -5.7235  -20.5648 H           1 MOL       0.0599
     56 H5         13.7211   -3.7341  -21.9135 H           1 MOL       0.0557
     57 H6         16.0150   -2.2671  -23.6701 H           1 MOL       0.0776
     58 H7         14.2905   -2.5046  -23.9344 H           1 MOL       0.0776
     59 H8         16.2170   -4.1218  -27.5196 H           1 MOL       0.1888
     60 H9         13.4853   -4.4473  -28.5372 H           1 MOL       0.0787
     61 H10        14.9524   -3.0764  -29.9711 H           1 MOL       0.0465
     62 H11        14.3764   -4.5248  -30.7469 H           1 MOL       0.0465
     63 H12        17.4068   -3.0699  -29.0901 H           1 MOL       0.0557
     64 H13        19.6675   -3.8132  -29.5126 H           1 MOL       0.0599
     65 H14        20.0837   -5.6836  -31.0030 H           1 MOL       0.0559
     66 H15        18.2231   -6.8033  -32.0933 H           1 MOL       0.0599
     67 H16        15.9617   -6.0918  -31.6655 H           1 MOL       0.0557
     68 H17        13.3503  -10.0624  -24.8884 H           1 MOL       0.1876
     69 H18        11.4399  -11.0350  -26.8866 H           1 MOL       0.0747
     70 H19        12.3376  -12.9671  -24.7914 H           1 MOL       0.0446
     71 H20        13.6632  -12.3891  -25.7214 H           1 MOL       0.0446
     72 H21        13.7065  -12.7093  -28.2171 H           1 MOL       0.0530
     73 H22        13.2545  -14.3115  -29.9629 H           1 MOL       0.0525
     74 H23        12.1092  -16.9612  -29.7547 H           1 MOL       0.2458
     75 H24        10.2581  -16.0729  -27.5908 H           1 MOL       0.0525
     76 H25        10.7046  -14.4839  -25.8323 H           1 MOL       0.0530
     77 H26        13.2315   -6.4730  -26.6147 H           1 MOL       0.0495
     78 H27        14.9027   -6.2302  -26.1436 H           1 MOL       0.0495
     79 H28        14.4569   -8.2221  -25.2426 H           1 MOL       0.0581
     80 H29        16.5663   -8.3148  -26.6823 H           1 MOL       0.0513
     81 H30        15.6495   -9.2724  -27.8554 H           1 MOL       0.0513
     82 H31        16.4329   -9.4241  -24.0674 H           1 MOL       0.0289
     83 H32        16.4992  -10.3660  -21.9305 H           1 MOL       0.0616
     84 H33        17.2022  -11.2761  -19.8305 H           1 MOL       0.0615
     85 H34        18.0823  -13.5315  -19.7076 H           1 MOL       0.0610
     86 H35        18.1703  -14.9146  -21.7029 H           1 MOL       0.0615
     87 H36        17.4420  -14.0408  -23.8166 H           1 MOL       0.0616
@<TRIPOS>BOND
     1     1     2  ar
     2     6     1  ar
     3     2     3  ar
     4     4     3  ar
     5     5     4  ar
     6     6     5  ar
     7     7     6   1
     8     8     7   1
     9     9     8   1
    10     9    10   2
    11    11     9  am
    12    12    11   1
    13    12    13   1
    14    20    12   1
    15    13    14   1
    16    14    15  ar
    17    14    19  ar
    18    15    16  ar
    19    16    17  ar
    20    18    17  ar
    21    19    18  ar
    22    20    21  ar
    23    20    22  ar
    24    36    20   1
    25    23    24   1
    26    38    23  am
    27    24    25   1
    28    24    28   1
    29    25    26  ar
    30    25    27  ar
    31    28    29   1
    32    29    30  ar
    33    29    35  ar
    34    30    31  ar
    35    31    32  ar
    36    32    33   1
    37    34    32  ar
    38    35    34  ar
    39    37    36   1
    40    37    38   1
    41    37    40   1
    42    38    39   2
    43    40    41   1
    44    41    42   2
    45    41    43   1
    46    42    45   1
    47    43    44   1
    48    44    45   2
    49    45    46   1
    50    46    47  ar
    51    46    51  ar
    52    47    48  ar
    53    48    49  ar
    54    49    50  ar
    55    50    51  ar
    56     1    52   1
    57     2    53   1
    58     3    54   1
    59     4    55   1
    60     5    56   1
    61     7    57   1
    62     7    58   1
    63    11    59   1
    64    12    60   1
    65    13    61   1
    66    13    62   1
    67    15    63   1
    68    16    64   1
    69    17    65   1
    70    18    66   1
    71    19    67   1
    72    23    68   1
    73    24    69   1
    74    28    70   1
    75    28    71   1
    76    30    72   1
    77    31    73   1
    78    33    74   1
    79    34    75   1
    80    35    76   1
    81    36    77   1
    82    36    78   1
    83    37    79   1
    84    40    80   1
    85    40    81   1
    86    42    82   1
    87    47    83   1
    88    48    84   1
    89    49    85   1
    90    50    86   1
    91    51    87   1
@<TRIPOS>SUBSTRUCTURE
     1  MOL      1

