@<TRIPOS>MOLECULE
2xy9_ligand_067
    87    91
SMALL
GAST_HUCK
****
This file was generated by PARSER (from files_GN.cpp)

@<TRIPOS>ATOM
      1 CAQ        22.1246   -7.7307  -33.0014 C.ar        1 MOL      -0.0578
      2 CAK        22.6118   -9.0525  -33.0386 C.ar        1 MOL      -0.0685
      3 CAH        22.0232  -10.0466  -32.2337 C.ar        1 MOL      -0.0687
      4 CAL        20.9413   -9.7195  -31.3981 C.ar        1 MOL      -0.0685
      5 CAR        20.4449   -8.4037  -31.3780 C.ar        1 MOL      -0.0578
      6 CBP        21.0336   -7.3849  -32.1673 C.ar        1 MOL      -0.0130
      7 CBB        20.4754   -6.0028  -32.1595 C.3         1 MOL       0.1113
      8 OBJ        20.1890   -5.5536  -30.8251 O.3         1 MOL      -0.2506
      9 CBM        18.9866   -5.5608  -30.1886 C.2         1 MOL       0.3232
     10 OAB        17.8864   -6.0256  -30.8263 O.2         1 MOL      -0.3774
     11 NBI        18.9839   -5.2487  -28.8760 N.am        1 MOL      -0.2418
     12 CBX        18.0099   -5.5955  -27.8692 C.3         1 MOL       0.1176
     13 CBE        16.5717   -5.0038  -28.0642 C.3         1 MOL       0.0205
     14 CBQ        16.4768   -3.5847  -27.6338 C.ar        1 MOL      -0.0393
     15 CAS        16.0147   -3.2581  -26.3351 C.ar        1 MOL      -0.0602
     16 CAM        15.9314   -1.9181  -25.9216 C.ar        1 MOL      -0.0686
     17 CAI        16.3038   -0.8858  -26.8004 C.ar        1 MOL      -0.0687
     18 CAN        16.7711   -1.1974  -28.0910 C.ar        1 MOL      -0.0686
     19 CAT        16.8687   -2.5417  -28.4998 C.ar        1 MOL      -0.0602
     20 PBY        17.9987   -7.2358  -27.5239 P.3         1 MOL       0.0154
     21 OAG        17.5038   -7.4122  -26.1755 O.co2       1 MOL      -0.6174
     22 OAD        19.3799   -7.6622  -27.4229 O.co2       1 MOL      -0.6174
     23 N          14.2930   -9.3999  -26.6186 N.am        1 MOL      -0.2694
     24 CA         12.9324   -9.1911  -26.1917 C.3         1 MOL       0.1024
     25 C          11.9399   -9.4961  -27.2559 C.2         1 MOL       0.0619
     26 OXT        10.6198   -9.4409  -26.9746 O.co2       1 MOL      -0.5665
     27 O          12.2950  -10.0851  -28.4224 O.co2       1 MOL      -0.5665
     28 CB         12.7354   -7.7891  -25.5337 C.3         1 MOL       0.0108
     29 CG         13.5974   -7.4252  -24.3610 C.ar        1 MOL      -0.0499
     30 CD1        14.4219   -8.3524  -23.6714 C.ar        1 MOL      -0.0686
     31 CE1        15.2054   -7.9522  -22.5725 C.ar        1 MOL      -0.0398
     32 CZ         15.1694   -6.6177  -22.1283 C.ar        1 MOL       0.0805
     33 OH         15.9195   -6.2622  -21.0553 O.3         1 MOL      -0.3376
     34 CE2        14.3455   -5.6853  -22.7895 C.ar        1 MOL      -0.0398
     35 CD2        13.5626   -6.0876  -23.8880 C.ar        1 MOL      -0.0686
     36 CBF        17.2306   -8.2660  -28.6001 C.3         1 MOL       0.0375
     37 CBV        16.2609   -9.3477  -28.0067 C.3         1 MOL       0.0788
     38 CBN        14.9547   -8.8071  -27.6080 C.2         1 MOL       0.1848
     39 OAC        14.3826   -8.0120  -28.3502 O.2         1 MOL      -0.3964
     40 CBC        16.0737  -10.5379  -29.0082 C.3         1 MOL       0.0422
     41 CBS        15.2674  -11.6700  -28.5083 C.2         1 MOL       0.1411
     42 CBA        14.5249  -12.5492  -29.2822 C.2         1 MOL      -0.0269
     43 OBK        15.0337  -11.9761  -27.2073 O.3         1 MOL      -0.1670
     44 NBG        14.1786  -12.9696  -27.1572 N.2         1 MOL      -0.1519
     45 CBU        13.8104  -13.3477  -28.3997 C.2         1 MOL       0.0430
     46 CBT        12.8422  -14.3415  -28.6925 C.ar        1 MOL      -0.0150
     47 CAU        12.8624  -15.0680  -29.9094 C.ar        1 MOL      -0.0551
     48 CAO        11.9114  -16.0772  -30.1572 C.ar        1 MOL      -0.0621
     49 CAJ        10.9164  -16.3578  -29.1998 C.ar        1 MOL      -0.0626
     50 CAP        10.8642  -15.6233  -28.0021 C.ar        1 MOL      -0.0621
     51 CAV        11.8238  -14.6257  -27.7476 C.ar        1 MOL      -0.0551
     52 H1         22.5610   -7.0256  -33.6022 H           1 MOL       0.0557
     53 H2         23.3897   -9.2920  -33.6569 H           1 MOL       0.0599
     54 H3         22.3782  -11.0056  -32.2551 H           1 MOL       0.0559
     55 H4         20.5121  -10.4368  -30.8072 H           1 MOL       0.0599
     56 H5         19.6506   -8.1972  -30.7725 H           1 MOL       0.0557
     57 H6         19.5759   -5.9936  -32.7796 H           1 MOL       0.0776
     58 H7         21.1791   -5.2941  -32.6018 H           1 MOL       0.0776
     59 H8         19.8055   -4.8536  -28.5400 H           1 MOL       0.1888
     60 H9         18.4174   -5.1454  -26.9586 H           1 MOL       0.0787
     61 H10        15.8387   -5.5754  -27.4873 H           1 MOL       0.0465
     62 H11        16.2585   -5.0943  -29.1044 H           1 MOL       0.0465
     63 H12        15.7462   -3.9953  -25.6785 H           1 MOL       0.0557
     64 H13        15.6128   -1.6946  -24.9750 H           1 MOL       0.0599
     65 H14        16.2412    0.0902  -26.4997 H           1 MOL       0.0559
     66 H15        17.0459   -0.4478  -28.7293 H           1 MOL       0.0599
     67 H16        17.2257   -2.7543  -29.4340 H           1 MOL       0.0557
     68 H17        14.7746  -10.0992  -26.1462 H           1 MOL       0.1876
     69 H18        12.7417   -9.9369  -25.4188 H           1 MOL       0.0747
     70 H19        11.6961   -7.7083  -25.2032 H           1 MOL       0.0446
     71 H20        12.8803   -7.0343  -26.3162 H           1 MOL       0.0446
     72 H21        14.4611   -9.3360  -23.9472 H           1 MOL       0.0530
     73 H22        15.8007   -8.6351  -22.0960 H           1 MOL       0.0525
     74 H23        15.8315   -5.2870  -20.9730 H           1 MOL       0.2458
     75 H24        14.3092   -4.7132  -22.4708 H           1 MOL       0.0525
     76 H25        12.9595   -5.3966  -24.3432 H           1 MOL       0.0530
     77 H26        18.0177   -8.7817  -29.1531 H           1 MOL       0.0495
     78 H27        16.6822   -7.6769  -29.3347 H           1 MOL       0.0495
     79 H28        16.7542   -9.7857  -27.1312 H           1 MOL       0.0581
     80 H29        17.0527  -10.9393  -29.2890 H           1 MOL       0.0513
     81 H30        15.6215  -10.1498  -29.9235 H           1 MOL       0.0513
     82 H31        14.4698  -12.5613  -30.3049 H           1 MOL       0.0289
     83 H32        13.5852  -14.8902  -30.6123 H           1 MOL       0.0616
     84 H33        11.9460  -16.6104  -31.0313 H           1 MOL       0.0615
     85 H34        10.2323  -17.0914  -29.3724 H           1 MOL       0.0610
     86 H35        10.1306  -15.8145  -27.3146 H           1 MOL       0.0615
     87 H36        11.7602  -14.1055  -26.8700 H           1 MOL       0.0616
@<TRIPOS>BOND
     1     1     2  ar
     2     6     1  ar
     3     2     3  ar
     4     4     3  ar
     5     5     4  ar
     6     6     5  ar
     7     7     6   1
     8     8     7   1
     9     9     8   1
    10     9    10   2
    11    11     9  am
    12    12    11   1
    13    12    13   1
    14    20    12   1
    15    13    14   1
    16    14    15  ar
    17    14    19  ar
    18    15    16  ar
    19    16    17  ar
    20    18    17  ar
    21    19    18  ar
    22    20    21  ar
    23    20    22  ar
    24    36    20   1
    25    23    24   1
    26    38    23  am
    27    24    25   1
    28    24    28   1
    29    25    26  ar
    30    25    27  ar
    31    28    29   1
    32    29    30  ar
    33    29    35  ar
    34    30    31  ar
    35    31    32  ar
    36    32    33   1
    37    34    32  ar
    38    35    34  ar
    39    37    36   1
    40    37    38   1
    41    37    40   1
    42    38    39   2
    43    40    41   1
    44    41    42   2
    45    41    43   1
    46    42    45   1
    47    43    44   1
    48    44    45   2
    49    45    46   1
    50    46    47  ar
    51    46    51  ar
    52    47    48  ar
    53    48    49  ar
    54    49    50  ar
    55    50    51  ar
    56     1    52   1
    57     2    53   1
    58     3    54   1
    59     4    55   1
    60     5    56   1
    61     7    57   1
    62     7    58   1
    63    11    59   1
    64    12    60   1
    65    13    61   1
    66    13    62   1
    67    15    63   1
    68    16    64   1
    69    17    65   1
    70    18    66   1
    71    19    67   1
    72    23    68   1
    73    24    69   1
    74    28    70   1
    75    28    71   1
    76    30    72   1
    77    31    73   1
    78    33    74   1
    79    34    75   1
    80    35    76   1
    81    36    77   1
    82    36    78   1
    83    37    79   1
    84    40    80   1
    85    40    81   1
    86    42    82   1
    87    47    83   1
    88    48    84   1
    89    49    85   1
    90    50    86   1
    91    51    87   1
@<TRIPOS>SUBSTRUCTURE
     1  MOL      1

