@<TRIPOS>MOLECULE
2xy9_ligand_027
    87    91
SMALL
GAST_HUCK
****
This file was generated by PARSER (from files_GN.cpp)

@<TRIPOS>ATOM
      1 CAQ        23.3254  -10.7957  -32.8744 C.ar        1 MOL      -0.0578
      2 CAK        24.3477  -10.1736  -33.6164 C.ar        1 MOL      -0.0685
      3 CAH        24.1184   -9.7871  -34.9493 C.ar        1 MOL      -0.0687
      4 CAL        22.8669  -10.0275  -35.5422 C.ar        1 MOL      -0.0685
      5 CAR        21.8418  -10.6477  -34.8008 C.ar        1 MOL      -0.0578
      6 CBP        22.0583  -11.0339  -33.4566 C.ar        1 MOL      -0.0130
      7 CBB        20.9609  -11.6598  -32.6772 C.3         1 MOL       0.1113
      8 OBJ        19.8729  -10.7409  -32.5095 O.3         1 MOL      -0.2506
      9 CBM        19.8403   -9.6117  -31.7603 C.2         1 MOL       0.3232
     10 OAB        20.8904   -9.2646  -30.9716 O.2         1 MOL      -0.3774
     11 NBI        18.7448   -8.8335  -31.8838 N.am        1 MOL      -0.2418
     12 CBX        18.4921   -7.5792  -31.2345 C.3         1 MOL       0.1176
     13 CBE        18.6236   -6.4387  -32.2960 C.3         1 MOL       0.0205
     14 CBQ        20.0473   -6.1765  -32.6446 C.ar        1 MOL      -0.0393
     15 CAS        20.9107   -5.6115  -31.6771 C.ar        1 MOL      -0.0602
     16 CAM        22.2690   -5.3831  -31.9688 C.ar        1 MOL      -0.0686
     17 CAI        22.7824   -5.7345  -33.2299 C.ar        1 MOL      -0.0687
     18 CAN        21.9360   -6.2961  -34.2030 C.ar        1 MOL      -0.0686
     19 CAT        20.5732   -6.5104  -33.9151 C.ar        1 MOL      -0.0602
     20 PBY        16.9914   -7.6698  -30.4842 P.3         1 MOL       0.0154
     21 OAG        16.0323   -8.3720  -31.3077 O.co2       1 MOL      -0.6174
     22 OAD        16.4250   -6.3590  -30.2812 O.co2       1 MOL      -0.6174
     23 N          14.6833   -6.7926  -27.4540 N.am        1 MOL      -0.2694
     24 CA         13.7879   -5.6622  -27.4950 C.3         1 MOL       0.1024
     25 C          14.4622   -4.4602  -28.0314 C.2         1 MOL       0.0619
     26 OXT        13.7269   -3.3995  -28.4282 O.co2       1 MOL      -0.5665
     27 O          15.7942   -4.4500  -28.2986 O.co2       1 MOL      -0.5665
     28 CB         13.1366   -5.4427  -26.0987 C.3         1 MOL       0.0108
     29 CG         14.0505   -4.9331  -25.0389 C.ar        1 MOL      -0.0499
     30 CD1        14.4090   -5.7412  -23.9299 C.ar        1 MOL      -0.0686
     31 CE1        15.2283   -5.2323  -22.9036 C.ar        1 MOL      -0.0398
     32 CZ         15.6922   -3.9020  -22.9609 C.ar        1 MOL       0.0805
     33 OH         16.4383   -3.3703  -21.9659 O.3         1 MOL      -0.3376
     34 CE2        15.3370   -3.0887  -24.0534 C.ar        1 MOL      -0.0398
     35 CD2        14.5226   -3.5992  -25.0816 C.ar        1 MOL      -0.0686
     36 CBF        17.1124   -8.3673  -28.9676 C.3         1 MOL       0.0375
     37 CBV        15.8087   -8.8114  -28.2233 C.3         1 MOL       0.0788
     38 CBN        14.7469   -7.8020  -28.3185 C.2         1 MOL       0.1848
     39 OAC        14.0402   -7.7897  -29.3187 O.2         1 MOL      -0.3964
     40 CBC        15.3549  -10.2682  -28.6167 C.3         1 MOL       0.0422
     41 CBS        14.7180  -11.0286  -27.5231 C.2         1 MOL       0.1411
     42 CBA        13.5838  -10.7004  -26.7922 C.2         1 MOL      -0.0269
     43 OBK        15.1702  -12.2141  -27.0489 O.3         1 MOL      -0.1670
     44 NBG        14.3912  -12.6135  -26.0807 N.2         1 MOL      -0.1519
     45 CBU        13.3992  -11.7204  -25.8618 C.2         1 MOL       0.0430
     46 CBT        12.4107  -11.8322  -24.8434 C.ar        1 MOL      -0.0150
     47 CAU        11.4942  -10.7832  -24.5664 C.ar        1 MOL      -0.0551
     48 CAO        10.5546  -10.8989  -23.5236 C.ar        1 MOL      -0.0621
     49 CAJ        10.5160  -12.0636  -22.7379 C.ar        1 MOL      -0.0626
     50 CAP        11.3944  -13.1228  -23.0140 C.ar        1 MOL      -0.0621
     51 CAV        12.3333  -13.0063  -24.0510 C.ar        1 MOL      -0.0551
     52 H1         23.5141  -11.0712  -31.9055 H           1 MOL       0.0557
     53 H2         25.2583   -9.9993  -33.1842 H           1 MOL       0.0599
     54 H3         24.8618   -9.3435  -35.4894 H           1 MOL       0.0559
     55 H4         22.7023   -9.7643  -36.5178 H           1 MOL       0.0599
     56 H5         20.9304  -10.8043  -35.2425 H           1 MOL       0.0557
     57 H6         21.2904  -11.9963  -31.6943 H           1 MOL       0.0776
     58 H7         20.5926  -12.5336  -33.2186 H           1 MOL       0.0776
     59 H8         18.0859   -9.1275  -32.5333 H           1 MOL       0.1888
     60 H9         19.2323   -7.3907  -30.4459 H           1 MOL       0.0787
     61 H10        18.2062   -5.5019  -31.9093 H           1 MOL       0.0465
     62 H11        18.0530   -6.7047  -33.1919 H           1 MOL       0.0465
     63 H12        20.5553   -5.3519  -30.7523 H           1 MOL       0.0557
     64 H13        22.8837   -4.9746  -31.2576 H           1 MOL       0.0599
     65 H14        23.7699   -5.5746  -33.4408 H           1 MOL       0.0559
     66 H15        22.3100   -6.5500  -35.1223 H           1 MOL       0.0599
     67 H16        19.9749   -6.9287  -34.6316 H           1 MOL       0.0557
     68 H17        15.3287   -6.8030  -26.7314 H           1 MOL       0.1876
     69 H18        12.9549   -5.8709  -28.1863 H           1 MOL       0.0747
     70 H19        12.6957   -6.3956  -25.7807 H           1 MOL       0.0446
     71 H20        12.3037   -4.7421  -26.2010 H           1 MOL       0.0446
     72 H21        14.0666   -6.7049  -23.8594 H           1 MOL       0.0530
     73 H22        15.4598   -5.8294  -22.1021 H           1 MOL       0.0525
     74 H23        17.1364   -4.0294  -21.7560 H           1 MOL       0.2458
     75 H24        15.6601   -2.1175  -24.0959 H           1 MOL       0.0525
     76 H25        14.2592   -2.9765  -25.8510 H           1 MOL       0.0530
     77 H26        17.6401   -7.6540  -28.3265 H           1 MOL       0.0495
     78 H27        17.7671   -9.2400  -29.0535 H           1 MOL       0.0495
     79 H28        16.1000   -8.8622  -27.1667 H           1 MOL       0.0581
     80 H29        16.2223  -10.8528  -28.9406 H           1 MOL       0.0513
     81 H30        14.6585  -10.2502  -29.4550 H           1 MOL       0.0513
     82 H31        13.0196   -9.8570  -26.9216 H           1 MOL       0.0289
     83 H32        11.5115   -9.9150  -25.1029 H           1 MOL       0.0616
     84 H33         9.9091  -10.1322  -23.3294 H           1 MOL       0.0615
     85 H34         9.8425  -12.1452  -21.9734 H           1 MOL       0.0610
     86 H35        11.3556  -13.9756  -22.4500 H           1 MOL       0.0615
     87 H36        12.9684  -13.7919  -24.2176 H           1 MOL       0.0616
@<TRIPOS>BOND
     1     1     2  ar
     2     6     1  ar
     3     2     3  ar
     4     4     3  ar
     5     5     4  ar
     6     6     5  ar
     7     7     6   1
     8     8     7   1
     9     9     8   1
    10     9    10   2
    11    11     9  am
    12    12    11   1
    13    12    13   1
    14    20    12   1
    15    13    14   1
    16    14    15  ar
    17    14    19  ar
    18    15    16  ar
    19    16    17  ar
    20    18    17  ar
    21    19    18  ar
    22    20    21  ar
    23    20    22  ar
    24    36    20   1
    25    23    24   1
    26    38    23  am
    27    24    25   1
    28    24    28   1
    29    25    26  ar
    30    25    27  ar
    31    28    29   1
    32    29    30  ar
    33    29    35  ar
    34    30    31  ar
    35    31    32  ar
    36    32    33   1
    37    34    32  ar
    38    35    34  ar
    39    37    36   1
    40    37    38   1
    41    37    40   1
    42    38    39   2
    43    40    41   1
    44    41    42   2
    45    41    43   1
    46    42    45   1
    47    43    44   1
    48    44    45   2
    49    45    46   1
    50    46    47  ar
    51    46    51  ar
    52    47    48  ar
    53    48    49  ar
    54    49    50  ar
    55    50    51  ar
    56     1    52   1
    57     2    53   1
    58     3    54   1
    59     4    55   1
    60     5    56   1
    61     7    57   1
    62     7    58   1
    63    11    59   1
    64    12    60   1
    65    13    61   1
    66    13    62   1
    67    15    63   1
    68    16    64   1
    69    17    65   1
    70    18    66   1
    71    19    67   1
    72    23    68   1
    73    24    69   1
    74    28    70   1
    75    28    71   1
    76    30    72   1
    77    31    73   1
    78    33    74   1
    79    34    75   1
    80    35    76   1
    81    36    77   1
    82    36    78   1
    83    37    79   1
    84    40    80   1
    85    40    81   1
    86    42    82   1
    87    47    83   1
    88    48    84   1
    89    49    85   1
    90    50    86   1
    91    51    87   1
@<TRIPOS>SUBSTRUCTURE
     1  MOL      1

