@<TRIPOS>MOLECULE
2xy9_ligand_015
    87    91
SMALL
GAST_HUCK
****
This file was generated by PARSER (from files_GN.cpp)

@<TRIPOS>ATOM
      1 CAQ        21.6452   -9.7753  -35.1776 C.ar        1 MOL      -0.0578
      2 CAK        22.7809   -9.3322  -35.8887 C.ar        1 MOL      -0.0685
      3 CAH        24.0229   -9.2422  -35.2358 C.ar        1 MOL      -0.0687
      4 CAL        24.1270   -9.5885  -33.8760 C.ar        1 MOL      -0.0685
      5 CAR        22.9928  -10.0407  -33.1739 C.ar        1 MOL      -0.0578
      6 CBP        21.7313  -10.1454  -33.8113 C.ar        1 MOL      -0.0130
      7 CBB        20.5610  -10.7195  -33.0882 C.3         1 MOL       0.1113
      8 OBJ        19.5472   -9.7775  -32.6833 O.3         1 MOL      -0.2506
      9 CBM        19.6941   -8.7505  -31.8103 C.2         1 MOL       0.3232
     10 OAB        20.8768   -8.5749  -31.1692 O.2         1 MOL      -0.3774
     11 NBI        18.6556   -7.8902  -31.6412 N.am        1 MOL      -0.2418
     12 CBX        18.7190   -6.6619  -30.8904 C.3         1 MOL       0.1176
     13 CBE        19.2938   -5.5025  -31.7700 C.3         1 MOL       0.0205
     14 CBQ        20.5367   -5.8297  -32.5226 C.ar        1 MOL      -0.0393
     15 CAS        20.4499   -6.4042  -33.8144 C.ar        1 MOL      -0.0602
     16 CAM        21.6099   -6.6955  -34.5484 C.ar        1 MOL      -0.0686
     17 CAI        22.8750   -6.4379  -33.9927 C.ar        1 MOL      -0.0687
     18 CAN        22.9806   -5.8921  -32.7029 C.ar        1 MOL      -0.0686
     19 CAT        21.8164   -5.5772  -31.9765 C.ar        1 MOL      -0.0602
     20 PBY        17.2315   -6.2671  -30.1915 P.3         1 MOL       0.0154
     21 OAG        16.2508   -7.2993  -30.4102 O.co2       1 MOL      -0.6174
     22 OAD        16.5948   -5.1964  -30.9199 O.co2       1 MOL      -0.6174
     23 N          14.6427   -6.5921  -26.1108 N.am        1 MOL      -0.2694
     24 CA         13.2382   -6.6241  -25.7910 C.3         1 MOL       0.1024
     25 C          12.4144   -5.5728  -26.4372 C.2         1 MOL       0.0619
     26 OXT        11.0719   -5.7193  -26.4963 O.co2       1 MOL      -0.5665
     27 O          12.9556   -4.4333  -26.9323 O.co2       1 MOL      -0.5665
     28 CB         13.0416   -6.6239  -24.2366 C.3         1 MOL       0.0108
     29 CG         13.9153   -5.6958  -23.4524 C.ar        1 MOL      -0.0499
     30 CD1        14.6738   -6.1763  -22.3567 C.ar        1 MOL      -0.0686
     31 CE1        15.5512   -5.3278  -21.6550 C.ar        1 MOL      -0.0398
     32 CZ         15.7068   -3.9859  -22.0507 C.ar        1 MOL       0.0805
     33 OH         16.5884   -3.1623  -21.4289 O.3         1 MOL      -0.3376
     34 CE2        14.9326   -3.4848  -23.1131 C.ar        1 MOL      -0.0398
     35 CD2        14.0256   -4.3238  -23.7862 C.ar        1 MOL      -0.0686
     36 CBF        17.3168   -5.7527  -28.5911 C.3         1 MOL       0.0375
     37 CBV        16.6683   -6.5805  -27.4264 C.3         1 MOL       0.0788
     38 CBN        15.2128   -6.4625  -27.3051 C.2         1 MOL       0.1848
     39 OAC        14.5217   -6.3080  -28.3075 O.2         1 MOL      -0.3964
     40 CBC        17.1648   -8.0547  -27.2690 C.3         1 MOL       0.0422
     41 CBS        16.6193   -9.0231  -28.2361 C.2         1 MOL       0.1411
     42 CBA        17.2693   -9.6346  -29.2973 C.2         1 MOL      -0.0269
     43 OBK        15.3281   -9.4257  -28.2775 O.3         1 MOL      -0.1670
     44 NBG        15.1522  -10.2113  -29.3036 N.2         1 MOL      -0.1519
     45 CBU        16.3075  -10.3745  -29.9792 C.2         1 MOL       0.0430
     46 CBT        16.4564  -11.1340  -31.1676 C.ar        1 MOL      -0.0150
     47 CAU        17.7331  -11.5079  -31.6498 C.ar        1 MOL      -0.0551
     48 CAO        17.8720  -12.2595  -32.8275 C.ar        1 MOL      -0.0621
     49 CAJ        16.7386  -12.6148  -33.5663 C.ar        1 MOL      -0.0626
     50 CAP        15.4583  -12.2603  -33.1109 C.ar        1 MOL      -0.0621
     51 CAV        15.3188  -11.5446  -31.9091 C.ar        1 MOL      -0.0551
     52 H1         20.7594   -9.8545  -35.6760 H           1 MOL       0.0557
     53 H2         22.7097   -9.0815  -36.8786 H           1 MOL       0.0599
     54 H3         24.8490   -8.9094  -35.7430 H           1 MOL       0.0559
     55 H4         25.0309   -9.5223  -33.3996 H           1 MOL       0.0599
     56 H5         23.1002  -10.3185  -32.1952 H           1 MOL       0.0557
     57 H6         20.8818  -11.2859  -32.2085 H           1 MOL       0.0776
     58 H7         20.0912  -11.4317  -33.7611 H           1 MOL       0.0776
     59 H8         17.8633   -8.0505  -32.1790 H           1 MOL       0.1888
     60 H9         19.4218   -6.8105  -30.0649 H           1 MOL       0.0787
     61 H10        19.4888   -4.6451  -31.1211 H           1 MOL       0.0465
     62 H11        18.5432   -5.1782  -32.4952 H           1 MOL       0.0465
     63 H12        19.5366   -6.6158  -34.2278 H           1 MOL       0.0557
     64 H13        21.5307   -7.0968  -35.4850 H           1 MOL       0.0599
     65 H14        23.7189   -6.6491  -34.5278 H           1 MOL       0.0559
     66 H15        23.9023   -5.7147  -32.2982 H           1 MOL       0.0599
     67 H16        21.9085   -5.1566  -31.0487 H           1 MOL       0.0557
     68 H17        15.2518   -6.7416  -25.3686 H           1 MOL       0.1876
     69 H18        12.8596   -7.5769  -26.1763 H           1 MOL       0.0747
     70 H19        13.2105   -7.6512  -23.9017 H           1 MOL       0.0446
     71 H20        12.0019   -6.3968  -23.9891 H           1 MOL       0.0446
     72 H21        14.5951   -7.1512  -22.0565 H           1 MOL       0.0530
     73 H22        16.0806   -5.6953  -20.8607 H           1 MOL       0.0525
     74 H23        17.2038   -3.7456  -20.9374 H           1 MOL       0.2458
     75 H24        15.0330   -2.5091  -23.4025 H           1 MOL       0.0525
     76 H25        13.4652   -3.9235  -24.5367 H           1 MOL       0.0530
     77 H26        16.8986   -4.7440  -28.5333 H           1 MOL       0.0495
     78 H27        18.3748   -5.6371  -28.3475 H           1 MOL       0.0495
     79 H28        17.0696   -6.0804  -26.5343 H           1 MOL       0.0581
     80 H29        16.8875   -8.4152  -26.2739 H           1 MOL       0.0513
     81 H30        18.2555   -8.0618  -27.3248 H           1 MOL       0.0513
     82 H31        18.2459   -9.5003  -29.5515 H           1 MOL       0.0289
     83 H32        18.5766  -11.2442  -31.1447 H           1 MOL       0.0616
     84 H33        18.7935  -12.5459  -33.1507 H           1 MOL       0.0615
     85 H34        16.8443  -13.1414  -34.4299 H           1 MOL       0.0610
     86 H35        14.6286  -12.5224  -33.6533 H           1 MOL       0.0615
     87 H36        14.3734  -11.3105  -31.5901 H           1 MOL       0.0616
@<TRIPOS>BOND
     1     1     2  ar
     2     6     1  ar
     3     2     3  ar
     4     4     3  ar
     5     5     4  ar
     6     6     5  ar
     7     7     6   1
     8     8     7   1
     9     9     8   1
    10     9    10   2
    11    11     9  am
    12    12    11   1
    13    12    13   1
    14    20    12   1
    15    13    14   1
    16    14    15  ar
    17    14    19  ar
    18    15    16  ar
    19    16    17  ar
    20    18    17  ar
    21    19    18  ar
    22    20    21  ar
    23    20    22  ar
    24    36    20   1
    25    23    24   1
    26    38    23  am
    27    24    25   1
    28    24    28   1
    29    25    26  ar
    30    25    27  ar
    31    28    29   1
    32    29    30  ar
    33    29    35  ar
    34    30    31  ar
    35    31    32  ar
    36    32    33   1
    37    34    32  ar
    38    35    34  ar
    39    37    36   1
    40    37    38   1
    41    37    40   1
    42    38    39   2
    43    40    41   1
    44    41    42   2
    45    41    43   1
    46    42    45   1
    47    43    44   1
    48    44    45   2
    49    45    46   1
    50    46    47  ar
    51    46    51  ar
    52    47    48  ar
    53    48    49  ar
    54    49    50  ar
    55    50    51  ar
    56     1    52   1
    57     2    53   1
    58     3    54   1
    59     4    55   1
    60     5    56   1
    61     7    57   1
    62     7    58   1
    63    11    59   1
    64    12    60   1
    65    13    61   1
    66    13    62   1
    67    15    63   1
    68    16    64   1
    69    17    65   1
    70    18    66   1
    71    19    67   1
    72    23    68   1
    73    24    69   1
    74    28    70   1
    75    28    71   1
    76    30    72   1
    77    31    73   1
    78    33    74   1
    79    34    75   1
    80    35    76   1
    81    36    77   1
    82    36    78   1
    83    37    79   1
    84    40    80   1
    85    40    81   1
    86    42    82   1
    87    47    83   1
    88    48    84   1
    89    49    85   1
    90    50    86   1
    91    51    87   1
@<TRIPOS>SUBSTRUCTURE
     1  MOL      1

