@<TRIPOS>MOLECULE
2xy9_ligand_025
    87    91
SMALL
GAST_HUCK
****
This file was generated by PARSER (from files_GN.cpp)

@<TRIPOS>ATOM
      1 CAQ        14.5966   -1.8275  -12.0475 C.ar        1 MOL      -0.0578
      2 CAK        14.4632   -0.7681  -11.1337 C.ar        1 MOL      -0.0685
      3 CAH        14.6708    0.5594  -11.5540 C.ar        1 MOL      -0.0687
      4 CAL        15.0134    0.8240  -12.8919 C.ar        1 MOL      -0.0685
      5 CAR        15.1555   -0.2366  -13.8056 C.ar        1 MOL      -0.0578
      6 CBP        14.9479   -1.5757  -13.3944 C.ar        1 MOL      -0.0130
      7 CBB        15.1422   -2.6822  -14.3594 C.3         1 MOL       0.1113
      8 OBJ        14.3061   -2.5020  -15.5166 O.3         1 MOL      -0.2506
      9 CBM        14.6909   -2.4742  -16.8165 C.2         1 MOL       0.3232
     10 OAB        15.9929   -2.6096  -17.1660 O.2         1 MOL      -0.3774
     11 NBI        13.7401   -2.2882  -17.7613 N.am        1 MOL      -0.2418
     12 CBX        13.9156   -2.2316  -19.1881 C.3         1 MOL       0.1176
     13 CBE        14.8310   -1.0573  -19.6835 C.3         1 MOL       0.0205
     14 CBQ        14.9798    0.0955  -18.7460 C.ar        1 MOL      -0.0393
     15 CAS        13.8539    0.8456  -18.3269 C.ar        1 MOL      -0.0602
     16 CAM        13.9872    1.8937  -17.3939 C.ar        1 MOL      -0.0686
     17 CAI        15.2547    2.2332  -16.8961 C.ar        1 MOL      -0.0687
     18 CAN        16.3890    1.5206  -17.3283 C.ar        1 MOL      -0.0686
     19 CAT        16.2539    0.4635  -18.2453 C.ar        1 MOL      -0.0602
     20 PBY        14.3403   -3.7313  -19.8078 P.3         1 MOL       0.0154
     21 OAG        13.2630   -4.6497  -19.5376 O.co2       1 MOL      -0.6174
     22 OAD        15.4837   -4.2377  -19.0890 O.co2       1 MOL      -0.6174
     23 N          13.0795   -4.5028  -23.9746 N.am        1 MOL      -0.2694
     24 CA         12.5132   -4.3878  -25.2875 C.3         1 MOL       0.1024
     25 C          12.2567   -5.7337  -25.8424 C.2         1 MOL       0.0619
     26 OXT        11.0864   -5.9931  -26.4669 O.co2       1 MOL      -0.5665
     27 O          13.2205   -6.6814  -25.9079 O.co2       1 MOL      -0.5665
     28 CB         13.2543   -3.3848  -26.2427 C.3         1 MOL       0.0108
     29 CG         13.8927   -3.9214  -27.4806 C.ar        1 MOL      -0.0499
     30 CD1        15.2684   -3.7248  -27.7555 C.ar        1 MOL      -0.0686
     31 CE1        15.8298   -4.1812  -28.9632 C.ar        1 MOL      -0.0398
     32 CZ         15.0304   -4.8427  -29.9217 C.ar        1 MOL       0.0805
     33 OH         15.5828   -5.2770  -31.0853 O.3         1 MOL      -0.3376
     34 CE2        13.6635   -5.0380  -29.6641 C.ar        1 MOL      -0.0398
     35 CD2        13.1012   -4.5799  -28.4520 C.ar        1 MOL      -0.0686
     36 CBF        14.6560   -3.7210  -21.4489 C.3         1 MOL       0.0375
     37 CBV        14.6257   -5.0926  -22.2173 C.3         1 MOL       0.0788
     38 CBN        14.3145   -4.8621  -23.6317 C.2         1 MOL       0.1848
     39 OAC        15.1775   -4.9889  -24.4938 O.2         1 MOL      -0.3964
     40 CBC        15.9147   -5.9528  -21.9692 C.3         1 MOL       0.0422
     41 CBS        15.9579   -7.2407  -22.6970 C.2         1 MOL       0.1411
     42 CBA        15.0781   -8.3108  -22.6053 C.2         1 MOL      -0.0269
     43 OBK        16.8780   -7.5616  -23.6376 O.3         1 MOL      -0.1670
     44 NBG        16.6095   -8.7454  -24.1214 N.2         1 MOL      -0.1519
     45 CBU        15.5066   -9.2592  -23.5356 C.2         1 MOL       0.0430
     46 CBT        14.9290  -10.5266  -23.8597 C.ar        1 MOL      -0.0150
     47 CAU        13.8051  -11.0363  -23.1614 C.ar        1 MOL      -0.0551
     48 CAO        13.2412  -12.2784  -23.5013 C.ar        1 MOL      -0.0621
     49 CAJ        13.7970  -13.0414  -24.5430 C.ar        1 MOL      -0.0626
     50 CAP        14.8993  -12.5474  -25.2600 C.ar        1 MOL      -0.0621
     51 CAV        15.4619  -11.3062  -24.9196 C.ar        1 MOL      -0.0551
     52 H1         14.4507   -2.7853  -11.7176 H           1 MOL       0.0557
     53 H2         14.2202   -0.9607  -10.1573 H           1 MOL       0.0599
     54 H3         14.5775    1.3311  -10.8861 H           1 MOL       0.0559
     55 H4         15.1652    1.7887  -13.1982 H           1 MOL       0.0599
     56 H5         15.4165   -0.0263  -14.7711 H           1 MOL       0.0557
     57 H6         14.8847   -3.6500  -13.9143 H           1 MOL       0.0776
     58 H7         16.1985   -2.7276  -14.6227 H           1 MOL       0.0776
     59 H8         12.8301   -2.1757  -17.4332 H           1 MOL       0.1888
     60 H9         12.9150   -2.0299  -19.5788 H           1 MOL       0.0787
     61 H10        14.4242   -0.6628  -20.6202 H           1 MOL       0.0465
     62 H11        15.8227   -1.4439  -19.9264 H           1 MOL       0.0465
     63 H12        12.9162    0.6080  -18.6733 H           1 MOL       0.0557
     64 H13        13.1639    2.4040  -17.0803 H           1 MOL       0.0599
     65 H14        15.3555    2.9963  -16.2249 H           1 MOL       0.0559
     66 H15        17.3184    1.7690  -16.9641 H           1 MOL       0.0599
     67 H16        17.0899   -0.0479  -18.5277 H           1 MOL       0.0557
     68 H17        12.4549   -4.3562  -23.2410 H           1 MOL       0.1876
     69 H18        11.5348   -3.9496  -25.1099 H           1 MOL       0.0747
     70 H19        14.0076   -2.8467  -25.6624 H           1 MOL       0.0446
     71 H20        12.5460   -2.6168  -26.5653 H           1 MOL       0.0446
     72 H21        15.8700   -3.2601  -27.0801 H           1 MOL       0.0530
     73 H22        16.8274   -4.0309  -29.1594 H           1 MOL       0.0525
     74 H23        14.9919   -4.9174  -31.7959 H           1 MOL       0.2458
     75 H24        13.0830   -5.5175  -30.3467 H           1 MOL       0.0525
     76 H25        12.0929   -4.7105  -28.2847 H           1 MOL       0.0530
     77 H26        15.6365   -3.2533  -21.6103 H           1 MOL       0.0495
     78 H27        13.9074   -3.0579  -21.8862 H           1 MOL       0.0495
     79 H28        13.7961   -5.6777  -21.8202 H           1 MOL       0.0581
     80 H29        16.0128   -6.1914  -20.9102 H           1 MOL       0.0513
     81 H30        16.7918   -5.3680  -22.2620 H           1 MOL       0.0513
     82 H31        14.2744   -8.3694  -21.9812 H           1 MOL       0.0289
     83 H32        13.3800  -10.5120  -22.3929 H           1 MOL       0.0616
     84 H33        12.4342  -12.6337  -22.9874 H           1 MOL       0.0615
     85 H34        13.3854  -13.9473  -24.7928 H           1 MOL       0.0610
     86 H35        15.2982  -13.0984  -26.0242 H           1 MOL       0.0615
     87 H36        16.2645  -10.9753  -25.4585 H           1 MOL       0.0616
@<TRIPOS>BOND
     1     1     2  ar
     2     6     1  ar
     3     2     3  ar
     4     4     3  ar
     5     5     4  ar
     6     6     5  ar
     7     7     6   1
     8     8     7   1
     9     9     8   1
    10     9    10   2
    11    11     9  am
    12    12    11   1
    13    12    13   1
    14    20    12   1
    15    13    14   1
    16    14    15  ar
    17    14    19  ar
    18    15    16  ar
    19    16    17  ar
    20    18    17  ar
    21    19    18  ar
    22    20    21  ar
    23    20    22  ar
    24    36    20   1
    25    23    24   1
    26    38    23  am
    27    24    25   1
    28    24    28   1
    29    25    26  ar
    30    25    27  ar
    31    28    29   1
    32    29    30  ar
    33    29    35  ar
    34    30    31  ar
    35    31    32  ar
    36    32    33   1
    37    34    32  ar
    38    35    34  ar
    39    37    36   1
    40    37    38   1
    41    37    40   1
    42    38    39   2
    43    40    41   1
    44    41    42   2
    45    41    43   1
    46    42    45   1
    47    43    44   1
    48    44    45   2
    49    45    46   1
    50    46    47  ar
    51    46    51  ar
    52    47    48  ar
    53    48    49  ar
    54    49    50  ar
    55    50    51  ar
    56     1    52   1
    57     2    53   1
    58     3    54   1
    59     4    55   1
    60     5    56   1
    61     7    57   1
    62     7    58   1
    63    11    59   1
    64    12    60   1
    65    13    61   1
    66    13    62   1
    67    15    63   1
    68    16    64   1
    69    17    65   1
    70    18    66   1
    71    19    67   1
    72    23    68   1
    73    24    69   1
    74    28    70   1
    75    28    71   1
    76    30    72   1
    77    31    73   1
    78    33    74   1
    79    34    75   1
    80    35    76   1
    81    36    77   1
    82    36    78   1
    83    37    79   1
    84    40    80   1
    85    40    81   1
    86    42    82   1
    87    47    83   1
    88    48    84   1
    89    49    85   1
    90    50    86   1
    91    51    87   1
@<TRIPOS>SUBSTRUCTURE
     1  MOL      1

