@<TRIPOS>MOLECULE
2xy9_ligand_084
    87    91
SMALL
GAST_HUCK
****
This file was generated by PARSER (from files_GN.cpp)

@<TRIPOS>ATOM
      1 CAQ        15.9546   -0.4677  -26.0556 C.ar        1 MOL      -0.0578
      2 CAK        15.7216    0.3341  -27.1904 C.ar        1 MOL      -0.0685
      3 CAH        15.3192   -0.2572  -28.4014 C.ar        1 MOL      -0.0687
      4 CAL        15.1277   -1.6468  -28.4678 C.ar        1 MOL      -0.0685
      5 CAR        15.3162   -2.4415  -27.3201 C.ar        1 MOL      -0.0578
      6 CBP        15.7094   -1.8581  -26.0929 C.ar        1 MOL      -0.0130
      7 CBB        15.7920   -2.6790  -24.8582 C.3         1 MOL       0.1113
      8 OBJ        14.7072   -3.5754  -24.6248 O.3         1 MOL      -0.2506
      9 CBM        13.5113   -3.7058  -25.2349 C.2         1 MOL       0.3232
     10 OAB        13.1174   -2.8585  -26.2172 O.2         1 MOL      -0.3774
     11 NBI        12.9242   -4.8860  -24.9810 N.am        1 MOL      -0.2418
     12 CBX        11.9684   -5.5824  -25.7879 C.3         1 MOL       0.1176
     13 CBE        12.1492   -5.3190  -27.3340 C.3         1 MOL       0.0205
     14 CBQ        13.4575   -5.5185  -28.0444 C.ar        1 MOL      -0.0393
     15 CAS        13.4581   -5.3929  -29.4592 C.ar        1 MOL      -0.0602
     16 CAM        14.6469   -5.4876  -30.2018 C.ar        1 MOL      -0.0686
     17 CAI        15.8612   -5.7663  -29.5463 C.ar        1 MOL      -0.0687
     18 CAN        15.8835   -5.9320  -28.1483 C.ar        1 MOL      -0.0686
     19 CAT        14.6906   -5.8028  -27.4099 C.ar        1 MOL      -0.0602
     20 PBY        11.9402   -7.2157  -25.3502 P.3         1 MOL       0.0154
     21 OAG        11.7454   -8.0414  -26.5154 O.co2       1 MOL      -0.6174
     22 OAD        10.7514   -7.4879  -24.5679 O.co2       1 MOL      -0.6174
     23 N          13.1459  -11.0615  -25.6852 N.am        1 MOL      -0.2694
     24 CA         13.4190  -11.9008  -26.8089 C.3         1 MOL       0.1024
     25 C          13.0119  -11.2177  -28.0558 C.2         1 MOL       0.0619
     26 OXT        11.7909  -10.6523  -28.1642 O.co2       1 MOL      -0.5665
     27 O          13.8892  -11.0425  -29.0674 O.co2       1 MOL      -0.5665
     28 CB         12.6729  -13.2510  -26.5932 C.3         1 MOL       0.0108
     29 CG         12.4557  -14.1536  -27.7585 C.ar        1 MOL      -0.0499
     30 CD1        11.3543  -15.0440  -27.7363 C.ar        1 MOL      -0.0686
     31 CE1        11.0899  -15.9003  -28.8199 C.ar        1 MOL      -0.0398
     32 CZ         11.9286  -15.8829  -29.9474 C.ar        1 MOL       0.0805
     33 OH         11.6821  -16.7269  -30.9758 O.3         1 MOL      -0.3376
     34 CE2        13.0401  -15.0234  -29.9803 C.ar        1 MOL      -0.0398
     35 CD2        13.3148  -14.1834  -28.8849 C.ar        1 MOL      -0.0686
     36 CBF        13.2502   -7.7353  -24.4291 C.3         1 MOL       0.0375
     37 CBV        13.4438   -9.2571  -24.1231 C.3         1 MOL       0.0788
     38 CBN        13.8249   -9.9844  -25.3288 C.2         1 MOL       0.1848
     39 OAC        14.7678   -9.5818  -26.0080 O.2         1 MOL      -0.3964
     40 CBC        14.5027   -9.4180  -22.9720 C.3         1 MOL       0.0422
     41 CBS        15.0547  -10.7642  -22.6883 C.2         1 MOL       0.1411
     42 CBA        15.3693  -11.7640  -23.5846 C.2         1 MOL      -0.0269
     43 OBK        15.6133  -11.1189  -21.4986 O.3         1 MOL      -0.1670
     44 NBG        16.2057  -12.2746  -21.6161 N.2         1 MOL      -0.1519
     45 CBU        16.0759  -12.7423  -22.8838 C.2         1 MOL       0.0430
     46 CBT        16.6059  -13.9560  -23.3960 C.ar        1 MOL      -0.0150
     47 CAU        16.3593  -14.3885  -24.7265 C.ar        1 MOL      -0.0551
     48 CAO        16.9121  -15.5870  -25.2160 C.ar        1 MOL      -0.0621
     49 CAJ        17.7110  -16.3793  -24.3793 C.ar        1 MOL      -0.0626
     50 CAP        17.9552  -15.9827  -23.0526 C.ar        1 MOL      -0.0621
     51 CAV        17.4126  -14.7775  -22.5701 C.ar        1 MOL      -0.0551
     52 H1         16.2465   -0.0165  -25.1896 H           1 MOL       0.0557
     53 H2         15.8538    1.3457  -27.1417 H           1 MOL       0.0599
     54 H3         15.1515    0.3220  -29.2288 H           1 MOL       0.0559
     55 H4         14.8267   -2.0850  -29.3392 H           1 MOL       0.0599
     56 H5         15.1487   -3.4473  -27.3853 H           1 MOL       0.0557
     57 H6         15.8903   -2.0634  -23.9638 H           1 MOL       0.0776
     58 H7         16.6777   -3.3041  -24.9409 H           1 MOL       0.0776
     59 H8         13.3339   -5.3745  -24.2497 H           1 MOL       0.1888
     60 H9         10.9870   -5.1715  -25.5325 H           1 MOL       0.0787
     61 H10        11.8522   -4.2825  -27.5193 H           1 MOL       0.0465
     62 H11        11.4020   -5.9045  -27.8704 H           1 MOL       0.0465
     63 H12        12.5853   -5.2178  -29.9578 H           1 MOL       0.0557
     64 H13        14.6321   -5.3528  -31.2164 H           1 MOL       0.0599
     65 H14        16.7314   -5.8457  -30.0843 H           1 MOL       0.0559
     66 H15        16.7690   -6.1308  -27.6677 H           1 MOL       0.0599
     67 H16        14.7463   -5.9291  -26.4051 H           1 MOL       0.0557
     68 H17        12.4179  -11.3353  -25.1019 H           1 MOL       0.1876
     69 H18        14.4932  -12.1113  -26.8400 H           1 MOL       0.0747
     70 H19        11.6939  -13.0160  -26.1648 H           1 MOL       0.0446
     71 H20        13.2185  -13.8294  -25.8415 H           1 MOL       0.0446
     72 H21        10.7253  -15.0754  -26.9282 H           1 MOL       0.0530
     73 H22        10.2869  -16.5332  -28.7887 H           1 MOL       0.0525
     74 H23        12.2233  -17.5099  -30.7525 H           1 MOL       0.2458
     75 H24        13.6596  -15.0124  -30.7952 H           1 MOL       0.0525
     76 H25        14.1520  -13.5986  -28.9194 H           1 MOL       0.0530
     77 H26        13.2110   -7.1966  -23.4798 H           1 MOL       0.0495
     78 H27        14.1641   -7.4007  -24.9190 H           1 MOL       0.0495
     79 H28        12.4945   -9.6555  -23.7369 H           1 MOL       0.0581
     80 H29        14.0563   -9.0510  -22.0424 H           1 MOL       0.0513
     81 H30        15.3658   -8.7792  -23.1822 H           1 MOL       0.0513
     82 H31        15.1517  -11.7675  -24.5876 H           1 MOL       0.0289
     83 H32        15.7758  -13.8432  -25.3646 H           1 MOL       0.0616
     84 H33        16.7296  -15.8816  -26.1772 H           1 MOL       0.0615
     85 H34        18.1170  -17.2408  -24.7433 H           1 MOL       0.0610
     86 H35        18.5372  -16.5521  -22.4382 H           1 MOL       0.0615
     87 H36        17.6215  -14.5004  -21.6093 H           1 MOL       0.0616
@<TRIPOS>BOND
     1     1     2  ar
     2     6     1  ar
     3     2     3  ar
     4     4     3  ar
     5     5     4  ar
     6     6     5  ar
     7     7     6   1
     8     8     7   1
     9     9     8   1
    10     9    10   2
    11    11     9  am
    12    12    11   1
    13    12    13   1
    14    20    12   1
    15    13    14   1
    16    14    15  ar
    17    14    19  ar
    18    15    16  ar
    19    16    17  ar
    20    18    17  ar
    21    19    18  ar
    22    20    21  ar
    23    20    22  ar
    24    36    20   1
    25    23    24   1
    26    38    23  am
    27    24    25   1
    28    24    28   1
    29    25    26  ar
    30    25    27  ar
    31    28    29   1
    32    29    30  ar
    33    29    35  ar
    34    30    31  ar
    35    31    32  ar
    36    32    33   1
    37    34    32  ar
    38    35    34  ar
    39    37    36   1
    40    37    38   1
    41    37    40   1
    42    38    39   2
    43    40    41   1
    44    41    42   2
    45    41    43   1
    46    42    45   1
    47    43    44   1
    48    44    45   2
    49    45    46   1
    50    46    47  ar
    51    46    51  ar
    52    47    48  ar
    53    48    49  ar
    54    49    50  ar
    55    50    51  ar
    56     1    52   1
    57     2    53   1
    58     3    54   1
    59     4    55   1
    60     5    56   1
    61     7    57   1
    62     7    58   1
    63    11    59   1
    64    12    60   1
    65    13    61   1
    66    13    62   1
    67    15    63   1
    68    16    64   1
    69    17    65   1
    70    18    66   1
    71    19    67   1
    72    23    68   1
    73    24    69   1
    74    28    70   1
    75    28    71   1
    76    30    72   1
    77    31    73   1
    78    33    74   1
    79    34    75   1
    80    35    76   1
    81    36    77   1
    82    36    78   1
    83    37    79   1
    84    40    80   1
    85    40    81   1
    86    42    82   1
    87    47    83   1
    88    48    84   1
    89    49    85   1
    90    50    86   1
    91    51    87   1
@<TRIPOS>SUBSTRUCTURE
     1  MOL      1

