@<TRIPOS>MOLECULE
2xy9_ligand_048
    87    91
SMALL
GAST_HUCK
****
This file was generated by PARSER (from files_GN.cpp)

@<TRIPOS>ATOM
      1 CAQ        12.5249  -10.0339  -26.0625 C.ar        1 MOL      -0.0578
      2 CAK        11.1406   -9.8101  -25.9714 C.ar        1 MOL      -0.0685
      3 CAH        10.4458  -10.1823  -24.8066 C.ar        1 MOL      -0.0687
      4 CAL        11.1362  -10.7902  -23.7411 C.ar        1 MOL      -0.0685
      5 CAR        12.5258  -10.9991  -23.8280 C.ar        1 MOL      -0.0578
      6 CBP        13.2396  -10.6191  -24.9888 C.ar        1 MOL      -0.0130
      7 CBB        14.7053  -10.8051  -25.1026 C.3         1 MOL       0.1113
      8 OBJ        15.2811   -9.5461  -25.5002 O.3         1 MOL      -0.2506
      9 CBM        16.2882   -8.8670  -24.8946 C.2         1 MOL       0.3232
     10 OAB        16.9466   -9.3956  -23.8265 O.2         1 MOL      -0.3774
     11 NBI        16.5908   -7.6489  -25.4172 N.am        1 MOL      -0.2418
     12 CBX        17.5751   -6.6924  -24.9809 C.3         1 MOL       0.1176
     13 CBE        17.4058   -5.3618  -25.8119 C.3         1 MOL       0.0205
     14 CBQ        18.2974   -5.1879  -26.9938 C.ar        1 MOL      -0.0393
     15 CAS        19.6923   -5.4055  -26.8761 C.ar        1 MOL      -0.0602
     16 CAM        20.5719   -5.0448  -27.9074 C.ar        1 MOL      -0.0686
     17 CAI        20.0748   -4.4631  -29.0864 C.ar        1 MOL      -0.0687
     18 CAN        18.6915   -4.2591  -29.2348 C.ar        1 MOL      -0.0686
     19 CAT        17.8083   -4.6153  -28.1968 C.ar        1 MOL      -0.0602
     20 PBY        17.5479   -6.4190  -23.3162 P.3         1 MOL       0.0154
     21 OAG        18.5215   -5.4192  -22.9571 O.co2       1 MOL      -0.6174
     22 OAD        18.1218   -7.5607  -22.6382 O.co2       1 MOL      -0.6174
     23 N          13.9742   -5.1087  -24.4509 N.am        1 MOL      -0.2694
     24 CA         12.9005   -4.7116  -25.3338 C.3         1 MOL       0.1024
     25 C          11.8281   -5.7387  -25.3710 C.2         1 MOL       0.0619
     26 OXT        11.9235   -6.9119  -24.7081 O.co2       1 MOL      -0.5665
     27 O          10.6948   -5.4944  -26.0590 O.co2       1 MOL      -0.5665
     28 CB         13.3289   -4.2758  -26.7814 C.3         1 MOL       0.0108
     29 CG         13.7757   -5.2626  -27.8126 C.ar        1 MOL      -0.0499
     30 CD1        14.0107   -6.6310  -27.5375 C.ar        1 MOL      -0.0686
     31 CE1        14.4963   -7.4939  -28.5299 C.ar        1 MOL      -0.0398
     32 CZ         14.7398   -7.0137  -29.8297 C.ar        1 MOL       0.0805
     33 OH         15.2158   -7.8539  -30.7840 O.3         1 MOL      -0.3376
     34 CE2        14.4880   -5.6617  -30.1300 C.ar        1 MOL      -0.0398
     35 CD2        14.0219   -4.7952  -29.1287 C.ar        1 MOL      -0.0686
     36 CBF        16.0960   -6.1282  -22.5467 C.3         1 MOL       0.0375
     37 CBV        15.5121   -4.6759  -22.6171 C.3         1 MOL       0.0788
     38 CBN        14.8671   -4.3028  -23.8782 C.2         1 MOL       0.1848
     39 OAC        14.9291   -3.1324  -24.2316 O.2         1 MOL      -0.3964
     40 CBC        14.5353   -4.3816  -21.4085 C.3         1 MOL       0.0422
     41 CBS        15.0938   -3.4784  -20.3770 C.2         1 MOL       0.1411
     42 CBA        14.6908   -3.3408  -19.0549 C.2         1 MOL      -0.0269
     43 OBK        16.0191   -2.5180  -20.6048 O.3         1 MOL      -0.1670
     44 NBG        16.2147   -1.8379  -19.5128 N.2         1 MOL      -0.1519
     45 CBU        15.4249   -2.2857  -18.5164 C.2         1 MOL       0.0430
     46 CBT        15.3888   -1.7043  -17.2182 C.ar        1 MOL      -0.0150
     47 CAU        14.4804   -2.1440  -16.2212 C.ar        1 MOL      -0.0551
     48 CAO        14.4613   -1.5477  -14.9436 C.ar        1 MOL      -0.0621
     49 CAJ        15.3509   -0.5024  -14.6398 C.ar        1 MOL      -0.0626
     50 CAP        16.2517   -0.0450  -15.6143 C.ar        1 MOL      -0.0621
     51 CAV        16.2708   -0.6395  -16.8888 C.ar        1 MOL      -0.0551
     52 H1         13.0086   -9.7576  -26.9203 H           1 MOL       0.0557
     53 H2         10.6408   -9.3713  -26.7533 H           1 MOL       0.0599
     54 H3          9.4394  -10.0200  -24.7350 H           1 MOL       0.0559
     55 H4         10.6275  -11.0659  -22.8977 H           1 MOL       0.0599
     56 H5         13.0131  -11.4282  -23.0383 H           1 MOL       0.0557
     57 H6         14.9091  -11.5502  -25.8791 H           1 MOL       0.0776
     58 H7         15.1392  -11.1724  -24.1594 H           1 MOL       0.0776
     59 H8         16.0620   -7.3790  -26.1922 H           1 MOL       0.1888
     60 H9         18.5514   -7.1368  -25.2023 H           1 MOL       0.0787
     61 H10        17.6049   -4.4846  -25.1926 H           1 MOL       0.0465
     62 H11        16.3571   -5.2667  -26.1056 H           1 MOL       0.0465
     63 H12        20.0908   -5.7950  -26.0180 H           1 MOL       0.0557
     64 H13        21.5780   -5.1880  -27.7869 H           1 MOL       0.0599
     65 H14        20.7217   -4.1697  -29.8201 H           1 MOL       0.0559
     66 H15        18.3316   -3.8260  -30.0874 H           1 MOL       0.0599
     67 H16        16.8159   -4.4142  -28.3089 H           1 MOL       0.0557
     68 H17        13.9351   -6.0187  -24.1157 H           1 MOL       0.1876
     69 H18        12.4450   -3.8251  -24.8655 H           1 MOL       0.0747
     70 H19        14.1196   -3.5226  -26.6879 H           1 MOL       0.0446
     71 H20        12.4664   -3.7401  -27.2062 H           1 MOL       0.0446
     72 H21        13.8638   -7.0040  -26.6026 H           1 MOL       0.0530
     73 H22        14.6953   -8.4705  -28.3053 H           1 MOL       0.0525
     74 H23        16.1342   -7.5483  -30.9598 H           1 MOL       0.2458
     75 H24        14.6652   -5.3094  -31.0706 H           1 MOL       0.0525
     76 H25        13.8733   -3.8135  -29.3625 H           1 MOL       0.0530
     77 H26        16.2680   -6.3626  -21.4888 H           1 MOL       0.0495
     78 H27        15.3649   -6.8529  -22.9048 H           1 MOL       0.0495
     79 H28        16.3786   -4.0146  -22.5215 H           1 MOL       0.0581
     80 H29        14.2338   -5.3181  -20.9265 H           1 MOL       0.0513
     81 H30        13.6097   -3.9037  -21.7423 H           1 MOL       0.0513
     82 H31        13.9754   -3.9050  -18.5860 H           1 MOL       0.0289
     83 H32        13.8171   -2.8958  -16.4124 H           1 MOL       0.0616
     84 H33        13.7991   -1.8735  -14.2386 H           1 MOL       0.0615
     85 H34        15.3377   -0.0720  -13.7134 H           1 MOL       0.0610
     86 H35        16.8953    0.7198  -15.3975 H           1 MOL       0.0615
     87 H36        16.9397   -0.2821  -17.5760 H           1 MOL       0.0616
@<TRIPOS>BOND
     1     1     2  ar
     2     6     1  ar
     3     2     3  ar
     4     4     3  ar
     5     5     4  ar
     6     6     5  ar
     7     7     6   1
     8     8     7   1
     9     9     8   1
    10     9    10   2
    11    11     9  am
    12    12    11   1
    13    12    13   1
    14    20    12   1
    15    13    14   1
    16    14    15  ar
    17    14    19  ar
    18    15    16  ar
    19    16    17  ar
    20    18    17  ar
    21    19    18  ar
    22    20    21  ar
    23    20    22  ar
    24    36    20   1
    25    23    24   1
    26    38    23  am
    27    24    25   1
    28    24    28   1
    29    25    26  ar
    30    25    27  ar
    31    28    29   1
    32    29    30  ar
    33    29    35  ar
    34    30    31  ar
    35    31    32  ar
    36    32    33   1
    37    34    32  ar
    38    35    34  ar
    39    37    36   1
    40    37    38   1
    41    37    40   1
    42    38    39   2
    43    40    41   1
    44    41    42   2
    45    41    43   1
    46    42    45   1
    47    43    44   1
    48    44    45   2
    49    45    46   1
    50    46    47  ar
    51    46    51  ar
    52    47    48  ar
    53    48    49  ar
    54    49    50  ar
    55    50    51  ar
    56     1    52   1
    57     2    53   1
    58     3    54   1
    59     4    55   1
    60     5    56   1
    61     7    57   1
    62     7    58   1
    63    11    59   1
    64    12    60   1
    65    13    61   1
    66    13    62   1
    67    15    63   1
    68    16    64   1
    69    17    65   1
    70    18    66   1
    71    19    67   1
    72    23    68   1
    73    24    69   1
    74    28    70   1
    75    28    71   1
    76    30    72   1
    77    31    73   1
    78    33    74   1
    79    34    75   1
    80    35    76   1
    81    36    77   1
    82    36    78   1
    83    37    79   1
    84    40    80   1
    85    40    81   1
    86    42    82   1
    87    47    83   1
    88    48    84   1
    89    49    85   1
    90    50    86   1
    91    51    87   1
@<TRIPOS>SUBSTRUCTURE
     1  MOL      1

