@<TRIPOS>MOLECULE
2xy9_ligand_087
    87    91
SMALL
GAST_HUCK
****
This file was generated by PARSER (from files_GN.cpp)

@<TRIPOS>ATOM
      1 CAQ        19.3926   -5.1685  -29.8279 C.ar        1 MOL      -0.0578
      2 CAK        19.0227   -5.7204  -31.0680 C.ar        1 MOL      -0.0685
      3 CAH        18.6621   -7.0770  -31.1578 C.ar        1 MOL      -0.0687
      4 CAL        18.6684   -7.8802  -30.0053 C.ar        1 MOL      -0.0685
      5 CAR        19.0306   -7.3266  -28.7604 C.ar        1 MOL      -0.0578
      6 CBP        19.3980   -5.9666  -28.6554 C.ar        1 MOL      -0.0130
      7 CBB        19.7639   -5.3914  -27.3398 C.3         1 MOL       0.1113
      8 OBJ        18.5649   -5.1485  -26.5906 O.3         1 MOL      -0.2506
      9 CBM        18.2902   -5.5022  -25.3078 C.2         1 MOL       0.3232
     10 OAB        19.2013   -6.1585  -24.5538 O.2         1 MOL      -0.3774
     11 NBI        17.0769   -5.1678  -24.7995 N.am        1 MOL      -0.2418
     12 CBX        16.6207   -5.3763  -23.4442 C.3         1 MOL       0.1176
     13 CBE        15.3292   -4.5071  -23.1917 C.3         1 MOL       0.0205
     14 CBQ        15.2879   -3.7583  -21.8929 C.ar        1 MOL      -0.0393
     15 CAS        15.4823   -4.4125  -20.6519 C.ar        1 MOL      -0.0602
     16 CAM        15.4135   -3.7055  -19.4361 C.ar        1 MOL      -0.0686
     17 CAI        15.1361   -2.3277  -19.4347 C.ar        1 MOL      -0.0687
     18 CAN        14.9286   -1.6600  -20.6546 C.ar        1 MOL      -0.0686
     19 CAT        15.0116   -2.3683  -21.8700 C.ar        1 MOL      -0.0602
     20 PBY        16.4495   -7.0128  -23.0584 P.3         1 MOL       0.0154
     21 OAG        15.3141   -7.2778  -22.2109 O.co2       1 MOL      -0.6174
     22 OAD        17.5419   -7.3778  -22.1919 O.co2       1 MOL      -0.6174
     23 N          13.2438  -10.0656  -24.5390 N.am        1 MOL      -0.2694
     24 CA         11.8332   -9.8877  -24.7751 C.3         1 MOL       0.1024
     25 C          11.1769  -11.2146  -24.6900 C.2         1 MOL       0.0619
     26 OXT        10.1099  -11.4015  -23.8748 O.co2       1 MOL      -0.5665
     27 O          11.5600  -12.2353  -25.4933 O.co2       1 MOL      -0.5665
     28 CB         11.4300   -9.1311  -26.0944 C.3         1 MOL       0.0108
     29 CG         12.4734   -8.9881  -27.1446 C.ar        1 MOL      -0.0499
     30 CD1        13.2133   -7.7910  -27.2650 C.ar        1 MOL      -0.0686
     31 CE1        14.1993   -7.6433  -28.2580 C.ar        1 MOL      -0.0398
     32 CZ         14.4315   -8.6817  -29.1821 C.ar        1 MOL       0.0805
     33 OH         15.3466   -8.5418  -30.1740 O.3         1 MOL      -0.3376
     34 CE2        13.6694   -9.8649  -29.0960 C.ar        1 MOL      -0.0398
     35 CD2        12.7142  -10.0246  -28.0727 C.ar        1 MOL      -0.0686
     36 CBF        16.4775   -8.0831  -24.3464 C.3         1 MOL       0.0375
     37 CBV        15.5851   -9.3862  -24.2767 C.3         1 MOL       0.0788
     38 CBN        14.1474   -9.0944  -24.4625 C.2         1 MOL       0.1848
     39 OAC        13.7420   -7.9356  -24.4718 O.2         1 MOL      -0.3964
     40 CBC        16.2078  -10.4221  -25.2900 C.3         1 MOL       0.0422
     41 CBS        15.4748  -11.6606  -25.6253 C.2         1 MOL       0.1411
     42 CBA        15.1654  -12.0848  -26.9060 C.2         1 MOL      -0.0269
     43 OBK        14.9344  -12.5480  -24.7620 O.3         1 MOL      -0.1670
     44 NBG        14.2901  -13.4663  -25.4463 N.2         1 MOL      -0.1519
     45 CBU        14.3745  -13.2139  -26.7738 C.2         1 MOL       0.0430
     46 CBT        13.6611  -13.8758  -27.8098 C.ar        1 MOL      -0.0150
     47 CAU        14.0990  -13.8393  -29.1568 C.ar        1 MOL      -0.0551
     48 CAO        13.3346  -14.4339  -30.1828 C.ar        1 MOL      -0.0621
     49 CAJ        12.1171  -15.0670  -29.8832 C.ar        1 MOL      -0.0626
     50 CAP        11.6684  -15.1138  -28.5508 C.ar        1 MOL      -0.0621
     51 CAV        12.4380  -14.5325  -27.5198 C.ar        1 MOL      -0.0551
     52 H1         19.6455   -4.1766  -29.7829 H           1 MOL       0.0557
     53 H2         19.0137   -5.1323  -31.9063 H           1 MOL       0.0599
     54 H3         18.3940   -7.4754  -32.0597 H           1 MOL       0.0559
     55 H4         18.4099   -8.8674  -30.0690 H           1 MOL       0.0599
     56 H5         19.0270   -7.9278  -27.9301 H           1 MOL       0.0557
     57 H6         20.2706   -4.4358  -27.4564 H           1 MOL       0.0776
     58 H7         20.4534   -6.0634  -26.8227 H           1 MOL       0.0776
     59 H8         16.4782   -4.7030  -25.4120 H           1 MOL       0.1888
     60 H9         17.4076   -4.9607  -22.8155 H           1 MOL       0.0787
     61 H10        14.4248   -5.1155  -23.2568 H           1 MOL       0.0465
     62 H11        15.2252   -3.7793  -24.0066 H           1 MOL       0.0465
     63 H12        15.6855   -5.4129  -20.6171 H           1 MOL       0.0557
     64 H13        15.5618   -4.1921  -18.5485 H           1 MOL       0.0599
     65 H14        15.0824   -1.8139  -18.5522 H           1 MOL       0.0559
     66 H15        14.7220   -0.6638  -20.6561 H           1 MOL       0.0599
     67 H16        14.8614   -1.8586  -22.7408 H           1 MOL       0.0557
     68 H17        13.5680  -10.9813  -24.4335 H           1 MOL       0.1876
     69 H18        11.4377   -9.3097  -23.9319 H           1 MOL       0.0747
     70 H19        11.0987   -8.1320  -25.7968 H           1 MOL       0.0446
     71 H20        10.5453   -9.5895  -26.5489 H           1 MOL       0.0446
     72 H21        13.0348   -7.0012  -26.6467 H           1 MOL       0.0530
     73 H22        14.7394   -6.7721  -28.3242 H           1 MOL       0.0525
     74 H23        16.0212   -7.9104  -29.8261 H           1 MOL       0.2458
     75 H24        13.8330  -10.6217  -29.7701 H           1 MOL       0.0525
     76 H25        12.1847  -10.9017  -28.0194 H           1 MOL       0.0530
     77 H26        17.5227   -8.3638  -24.4871 H           1 MOL       0.0495
     78 H27        16.1917   -7.5517  -25.2532 H           1 MOL       0.0495
     79 H28        15.6954   -9.8319  -23.2766 H           1 MOL       0.0581
     80 H29        17.1655  -10.7609  -24.8744 H           1 MOL       0.0513
     81 H30        16.4404   -9.8996  -26.2304 H           1 MOL       0.0513
     82 H31        15.4144  -11.6038  -27.7670 H           1 MOL       0.0289
     83 H32        14.9729  -13.3791  -29.4120 H           1 MOL       0.0616
     84 H33        13.6606  -14.3944  -31.1501 H           1 MOL       0.0615
     85 H34        11.5598  -15.4811  -30.6220 H           1 MOL       0.0610
     86 H35        10.7749  -15.5631  -28.3250 H           1 MOL       0.0615
     87 H36        12.0786  -14.5685  -26.5605 H           1 MOL       0.0616
@<TRIPOS>BOND
     1     1     2  ar
     2     6     1  ar
     3     2     3  ar
     4     4     3  ar
     5     5     4  ar
     6     6     5  ar
     7     7     6   1
     8     8     7   1
     9     9     8   1
    10     9    10   2
    11    11     9  am
    12    12    11   1
    13    12    13   1
    14    20    12   1
    15    13    14   1
    16    14    15  ar
    17    14    19  ar
    18    15    16  ar
    19    16    17  ar
    20    18    17  ar
    21    19    18  ar
    22    20    21  ar
    23    20    22  ar
    24    36    20   1
    25    23    24   1
    26    38    23  am
    27    24    25   1
    28    24    28   1
    29    25    26  ar
    30    25    27  ar
    31    28    29   1
    32    29    30  ar
    33    29    35  ar
    34    30    31  ar
    35    31    32  ar
    36    32    33   1
    37    34    32  ar
    38    35    34  ar
    39    37    36   1
    40    37    38   1
    41    37    40   1
    42    38    39   2
    43    40    41   1
    44    41    42   2
    45    41    43   1
    46    42    45   1
    47    43    44   1
    48    44    45   2
    49    45    46   1
    50    46    47  ar
    51    46    51  ar
    52    47    48  ar
    53    48    49  ar
    54    49    50  ar
    55    50    51  ar
    56     1    52   1
    57     2    53   1
    58     3    54   1
    59     4    55   1
    60     5    56   1
    61     7    57   1
    62     7    58   1
    63    11    59   1
    64    12    60   1
    65    13    61   1
    66    13    62   1
    67    15    63   1
    68    16    64   1
    69    17    65   1
    70    18    66   1
    71    19    67   1
    72    23    68   1
    73    24    69   1
    74    28    70   1
    75    28    71   1
    76    30    72   1
    77    31    73   1
    78    33    74   1
    79    34    75   1
    80    35    76   1
    81    36    77   1
    82    36    78   1
    83    37    79   1
    84    40    80   1
    85    40    81   1
    86    42    82   1
    87    47    83   1
    88    48    84   1
    89    49    85   1
    90    50    86   1
    91    51    87   1
@<TRIPOS>SUBSTRUCTURE
     1  MOL      1

