@<TRIPOS>MOLECULE
2xy9_ligand_088
    87    91
SMALL
GAST_HUCK
****
This file was generated by PARSER (from files_GN.cpp)

@<TRIPOS>ATOM
      1 CAQ        12.6143   -6.1686  -26.0688 C.ar        1 MOL      -0.0578
      2 CAK        12.2727   -4.8802  -25.6095 C.ar        1 MOL      -0.0685
      3 CAH        12.5021   -3.7599  -26.4264 C.ar        1 MOL      -0.0687
      4 CAL        13.0707   -3.9284  -27.7029 C.ar        1 MOL      -0.0685
      5 CAR        13.4157   -5.2178  -28.1589 C.ar        1 MOL      -0.0578
      6 CBP        13.2106   -6.3589  -27.3398 C.ar        1 MOL      -0.0130
      7 CBB        13.5758   -7.7383  -27.7851 C.3         1 MOL       0.1113
      8 OBJ        14.6301   -8.2723  -26.9805 O.3         1 MOL      -0.2506
      9 CBM        14.5427   -9.0129  -25.8495 C.2         1 MOL       0.3232
     10 OAB        13.3412   -9.3336  -25.3078 O.2         1 MOL      -0.3774
     11 NBI        15.7226   -9.2210  -25.2329 N.am        1 MOL      -0.2418
     12 CBX        15.8858   -9.6337  -23.8702 C.3         1 MOL       0.1176
     13 CBE        16.8137  -10.8902  -23.8379 C.3         1 MOL       0.0205
     14 CBQ        16.9197  -11.6918  -22.5874 C.ar        1 MOL      -0.0393
     15 CAS        16.2664  -11.3622  -21.3714 C.ar        1 MOL      -0.0602
     16 CAM        16.3732  -12.1907  -20.2383 C.ar        1 MOL      -0.0686
     17 CAI        17.1304  -13.3756  -20.3003 C.ar        1 MOL      -0.0687
     18 CAN        17.7944  -13.7182  -21.4942 C.ar        1 MOL      -0.0686
     19 CAT        17.6868  -12.8847  -22.6253 C.ar        1 MOL      -0.0602
     20 PBY        16.4425   -8.2852  -23.0493 P.3         1 MOL       0.0154
     21 OAG        17.4176   -7.5830  -23.8668 O.co2       1 MOL      -0.6174
     22 OAD        17.2350   -8.6288  -21.8839 O.co2       1 MOL      -0.6174
     23 N          15.7566   -5.7367  -25.0473 N.am        1 MOL      -0.2694
     24 CA         16.3468   -5.3093  -26.2934 C.3         1 MOL       0.1024
     25 C          16.5628   -6.5118  -27.1434 C.2         1 MOL       0.0619
     26 OXT        16.1516   -6.5054  -28.4328 O.co2       1 MOL      -0.5665
     27 O          17.4171   -7.4846  -26.7367 O.co2       1 MOL      -0.5665
     28 CB         17.6863   -4.5131  -26.0845 C.3         1 MOL       0.0108
     29 CG         18.6282   -4.4625  -27.2309 C.ar        1 MOL      -0.0499
     30 CD1        19.9642   -4.9150  -27.1005 C.ar        1 MOL      -0.0686
     31 CE1        20.8513   -4.8656  -28.1888 C.ar        1 MOL      -0.0398
     32 CZ         20.4149   -4.3941  -29.4447 C.ar        1 MOL       0.0805
     33 OH         21.2552   -4.3298  -30.5058 O.3         1 MOL      -0.3376
     34 CE2        19.0809   -3.9581  -29.5889 C.ar        1 MOL      -0.0398
     35 CD2        18.2089   -3.9638  -28.4850 C.ar        1 MOL      -0.0686
     36 CBF        15.1715   -7.2776  -22.6311 C.3         1 MOL       0.0375
     37 CBV        15.4055   -5.7233  -22.5912 C.3         1 MOL       0.0788
     38 CBN        15.6475   -5.0669  -23.8971 C.2         1 MOL       0.1848
     39 OAC        15.8945   -3.8656  -23.8891 O.2         1 MOL      -0.3964
     40 CBC        14.2082   -5.0456  -21.8323 C.3         1 MOL       0.0422
     41 CBS        14.4485   -3.7163  -21.2322 C.2         1 MOL       0.1411
     42 CBA        13.5671   -3.0838  -20.3669 C.2         1 MOL      -0.0269
     43 OBK        15.5335   -2.9133  -21.3496 O.3         1 MOL      -0.1670
     44 NBG        15.3529   -1.8468  -20.6151 N.2         1 MOL      -0.1519
     45 CBU        14.1664   -1.8884  -19.9800 C.2         1 MOL       0.0430
     46 CBT        13.6706   -0.8942  -19.0909 C.ar        1 MOL      -0.0150
     47 CAU        12.4530   -1.0576  -18.3790 C.ar        1 MOL      -0.0551
     48 CAO        11.9964   -0.0639  -17.4896 C.ar        1 MOL      -0.0621
     49 CAJ        12.7485    1.1077  -17.2979 C.ar        1 MOL      -0.0626
     50 CAP        13.9503    1.2914  -18.0043 C.ar        1 MOL      -0.0621
     51 CAV        14.4050    0.3004  -18.8881 C.ar        1 MOL      -0.0551
     52 H1         12.4358   -6.9737  -25.4586 H           1 MOL       0.0557
     53 H2         11.8580   -4.7619  -24.6812 H           1 MOL       0.0599
     54 H3         12.2546   -2.8238  -26.0929 H           1 MOL       0.0559
     55 H4         13.2395   -3.1069  -28.2902 H           1 MOL       0.0599
     56 H5         13.8298   -5.3111  -29.0900 H           1 MOL       0.0557
     57 H6         13.9459   -7.7228  -28.8124 H           1 MOL       0.0776
     58 H7         12.6835   -8.3821  -27.7530 H           1 MOL       0.0776
     59 H8         16.5257   -8.9611  -25.7211 H           1 MOL       0.1888
     60 H9         14.9187   -9.9371  -23.4479 H           1 MOL       0.0787
     61 H10        17.8275  -10.6050  -24.1364 H           1 MOL       0.0465
     62 H11        16.4416  -11.5871  -24.5999 H           1 MOL       0.0465
     63 H12        15.7029  -10.5146  -21.2907 H           1 MOL       0.0557
     64 H13        15.8759  -11.9400  -19.3786 H           1 MOL       0.0599
     65 H14        17.1637  -13.9928  -19.4951 H           1 MOL       0.0559
     66 H15        18.3450  -14.5789  -21.5340 H           1 MOL       0.0599
     67 H16        18.1491  -13.1761  -23.4916 H           1 MOL       0.0557
     68 H17        15.4900   -6.6656  -25.0119 H           1 MOL       0.1876
     69 H18        15.6240   -4.6437  -26.7835 H           1 MOL       0.0747
     70 H19        18.2027   -4.9101  -25.1998 H           1 MOL       0.0446
     71 H20        17.4258   -3.4754  -25.8599 H           1 MOL       0.0446
     72 H21        20.3048   -5.2840  -26.2081 H           1 MOL       0.0530
     73 H22        21.8218   -5.1674  -28.0656 H           1 MOL       0.0525
     74 H23        22.1539   -4.5398  -30.1685 H           1 MOL       0.2458
     75 H24        18.7553   -3.6001  -30.4899 H           1 MOL       0.0525
     76 H25        17.2585   -3.6153  -28.6125 H           1 MOL       0.0530
     77 H26        14.8602   -7.6105  -21.6352 H           1 MOL       0.0495
     78 H27        14.3216   -7.4675  -23.2938 H           1 MOL       0.0495
     79 H28        16.3027   -5.5727  -21.9792 H           1 MOL       0.0581
     80 H29        13.9117   -5.6708  -20.9842 H           1 MOL       0.0513
     81 H30        13.3348   -4.9727  -22.4896 H           1 MOL       0.0513
     82 H31        12.6548   -3.4491  -20.0733 H           1 MOL       0.0289
     83 H32        11.8822   -1.8956  -18.4860 H           1 MOL       0.0616
     84 H33        11.1188   -0.1920  -16.9815 H           1 MOL       0.0615
     85 H34        12.4199    1.8322  -16.6538 H           1 MOL       0.0610
     86 H35        14.4952    2.1482  -17.8749 H           1 MOL       0.0615
     87 H36        15.2851    0.4618  -19.3856 H           1 MOL       0.0616
@<TRIPOS>BOND
     1     1     2  ar
     2     6     1  ar
     3     2     3  ar
     4     4     3  ar
     5     5     4  ar
     6     6     5  ar
     7     7     6   1
     8     8     7   1
     9     9     8   1
    10     9    10   2
    11    11     9  am
    12    12    11   1
    13    12    13   1
    14    20    12   1
    15    13    14   1
    16    14    15  ar
    17    14    19  ar
    18    15    16  ar
    19    16    17  ar
    20    18    17  ar
    21    19    18  ar
    22    20    21  ar
    23    20    22  ar
    24    36    20   1
    25    23    24   1
    26    38    23  am
    27    24    25   1
    28    24    28   1
    29    25    26  ar
    30    25    27  ar
    31    28    29   1
    32    29    30  ar
    33    29    35  ar
    34    30    31  ar
    35    31    32  ar
    36    32    33   1
    37    34    32  ar
    38    35    34  ar
    39    37    36   1
    40    37    38   1
    41    37    40   1
    42    38    39   2
    43    40    41   1
    44    41    42   2
    45    41    43   1
    46    42    45   1
    47    43    44   1
    48    44    45   2
    49    45    46   1
    50    46    47  ar
    51    46    51  ar
    52    47    48  ar
    53    48    49  ar
    54    49    50  ar
    55    50    51  ar
    56     1    52   1
    57     2    53   1
    58     3    54   1
    59     4    55   1
    60     5    56   1
    61     7    57   1
    62     7    58   1
    63    11    59   1
    64    12    60   1
    65    13    61   1
    66    13    62   1
    67    15    63   1
    68    16    64   1
    69    17    65   1
    70    18    66   1
    71    19    67   1
    72    23    68   1
    73    24    69   1
    74    28    70   1
    75    28    71   1
    76    30    72   1
    77    31    73   1
    78    33    74   1
    79    34    75   1
    80    35    76   1
    81    36    77   1
    82    36    78   1
    83    37    79   1
    84    40    80   1
    85    40    81   1
    86    42    82   1
    87    47    83   1
    88    48    84   1
    89    49    85   1
    90    50    86   1
    91    51    87   1
@<TRIPOS>SUBSTRUCTURE
     1  MOL      1

