@<TRIPOS>MOLECULE
2xy9_ligand_043
    87    91
SMALL
GAST_HUCK
****
This file was generated by PARSER (from files_GN.cpp)

@<TRIPOS>ATOM
      1 CAQ        15.9444  -15.8239  -23.8009 C.ar        1 MOL      -0.0578
      2 CAK        16.4051  -16.9942  -24.4325 C.ar        1 MOL      -0.0685
      3 CAH        17.1601  -16.8938  -25.6116 C.ar        1 MOL      -0.0687
      4 CAL        17.4351  -15.6293  -26.1644 C.ar        1 MOL      -0.0685
      5 CAR        16.9809  -14.4606  -25.5218 C.ar        1 MOL      -0.0578
      6 CBP        16.2538  -14.5392  -24.3167 C.ar        1 MOL      -0.0130
      7 CBB        15.8482  -13.3436  -23.5321 C.3         1 MOL       0.1113
      8 OBJ        16.3190  -12.0274  -23.8833 O.3         1 MOL      -0.2506
      9 CBM        15.8108  -11.1467  -24.7826 C.2         1 MOL       0.3232
     10 OAB        14.8152  -11.5216  -25.6159 O.2         1 MOL      -0.3774
     11 NBI        16.1705   -9.8471  -24.6453 N.am        1 MOL      -0.2418
     12 CBX        15.5035   -8.7326  -25.2634 C.3         1 MOL       0.1176
     13 CBE        13.9217   -8.7541  -25.1657 C.3         1 MOL       0.0205
     14 CBQ        13.2590   -9.7175  -24.2322 C.ar        1 MOL      -0.0393
     15 CAS        12.1085  -10.4368  -24.6419 C.ar        1 MOL      -0.0602
     16 CAM        11.4821  -11.3624  -23.7865 C.ar        1 MOL      -0.0686
     17 CAI        11.9994  -11.5910  -22.4998 C.ar        1 MOL      -0.0687
     18 CAN        13.1143  -10.8598  -22.0594 C.ar        1 MOL      -0.0686
     19 CAT        13.7172   -9.9094  -22.9061 C.ar        1 MOL      -0.0602
     20 PBY        16.1753   -7.2819  -24.7349 P.3         1 MOL       0.0154
     21 OAG        15.9684   -6.3098  -25.7792 O.co2       1 MOL      -0.6174
     22 OAD        17.6123   -7.3950  -24.6831 O.co2       1 MOL      -0.6174
     23 N          13.6520   -4.9658  -24.6186 N.am        1 MOL      -0.2694
     24 CA         12.7813   -4.4800  -25.6572 C.3         1 MOL       0.1024
     25 C          12.3508   -5.6501  -26.4560 C.2         1 MOL       0.0619
     26 OXT        11.0429   -5.9713  -26.5635 O.co2       1 MOL      -0.5665
     27 O          13.2508   -6.5310  -26.9498 O.co2       1 MOL      -0.5665
     28 CB         13.2161   -3.2988  -26.5854 C.3         1 MOL       0.0108
     29 CG         14.4322   -3.4553  -27.4369 C.ar        1 MOL      -0.0499
     30 CD1        15.6320   -2.7713  -27.1239 C.ar        1 MOL      -0.0686
     31 CE1        16.7615   -2.8697  -27.9593 C.ar        1 MOL      -0.0398
     32 CZ         16.7036   -3.6252  -29.1464 C.ar        1 MOL       0.0805
     33 OH         17.7687   -3.6811  -29.9845 O.3         1 MOL      -0.3376
     34 CE2        15.5087   -4.2832  -29.4897 C.ar        1 MOL      -0.0398
     35 CD2        14.3824   -4.1887  -28.6485 C.ar        1 MOL      -0.0686
     36 CBF        15.6137   -6.7308  -23.2552 C.3         1 MOL       0.0375
     37 CBV        15.4662   -5.1853  -23.0025 C.3         1 MOL       0.0788
     38 CBN        14.7386   -4.4489  -24.0519 C.2         1 MOL       0.1848
     39 OAC        15.1613   -3.3426  -24.3790 O.2         1 MOL      -0.3964
     40 CBC        14.7740   -4.9513  -21.6119 C.3         1 MOL       0.0422
     41 CBS        14.9600   -3.6015  -21.0376 C.2         1 MOL       0.1411
     42 CBA        15.3997   -3.3031  -19.7558 C.2         1 MOL      -0.0269
     43 OBK        14.6777   -2.4245  -21.6403 O.3         1 MOL      -0.1670
     44 NBG        14.9385   -1.4406  -20.8196 N.2         1 MOL      -0.1519
     45 CBU        15.3746   -1.9179  -19.6379 C.2         1 MOL       0.0430
     46 CBT        15.7213   -1.1295  -18.5101 C.ar        1 MOL      -0.0150
     47 CAU        15.6653   -1.6532  -17.1944 C.ar        1 MOL      -0.0551
     48 CAO        16.0193   -0.8615  -16.0869 C.ar        1 MOL      -0.0621
     49 CAJ        16.4537    0.4619  -16.2759 C.ar        1 MOL      -0.0626
     50 CAP        16.5050    1.0016  -17.5728 C.ar        1 MOL      -0.0621
     51 CAV        16.1273    0.2167  -18.6782 C.ar        1 MOL      -0.0551
     52 H1         15.3959  -15.9231  -22.9428 H           1 MOL       0.0557
     53 H2         16.2048  -17.9104  -24.0297 H           1 MOL       0.0599
     54 H3         17.5103  -17.7377  -26.0693 H           1 MOL       0.0559
     55 H4         17.9814  -15.5604  -27.0320 H           1 MOL       0.0599
     56 H5         17.2041  -13.5558  -25.9289 H           1 MOL       0.0557
     57 H6         16.1905  -13.5044  -22.5062 H           1 MOL       0.0776
     58 H7         14.7547  -13.2986  -23.5106 H           1 MOL       0.0776
     59 H8         16.8609   -9.6481  -23.9900 H           1 MOL       0.1888
     60 H9         15.7695   -8.8001  -26.3273 H           1 MOL       0.0787
     61 H10        13.5409   -8.9330  -26.1808 H           1 MOL       0.0465
     62 H11        13.5216   -7.7718  -24.8985 H           1 MOL       0.0465
     63 H12        11.7127  -10.2992  -25.5744 H           1 MOL       0.0557
     64 H13        10.6560  -11.8817  -24.1043 H           1 MOL       0.0599
     65 H14        11.5506  -12.2676  -21.8772 H           1 MOL       0.0559
     66 H15        13.4968  -11.0276  -21.1227 H           1 MOL       0.0599
     67 H16        14.5174   -9.3875  -22.5443 H           1 MOL       0.0557
     68 H17        13.3679   -5.8115  -24.2373 H           1 MOL       0.1876
     69 H18        11.8983   -4.1235  -25.1200 H           1 MOL       0.0747
     70 H19        13.3352   -2.4215  -25.9547 H           1 MOL       0.0446
     71 H20        12.3775   -3.0581  -27.2492 H           1 MOL       0.0446
     72 H21        15.6860   -2.1729  -26.2962 H           1 MOL       0.0530
     73 H22        17.6197   -2.3731  -27.7089 H           1 MOL       0.0525
     74 H23        18.3435   -2.9336  -29.7093 H           1 MOL       0.2458
     75 H24        15.4483   -4.8145  -30.3598 H           1 MOL       0.0525
     76 H25        13.5128   -4.6386  -28.9462 H           1 MOL       0.0530
     77 H26        16.2870   -7.1415  -22.4963 H           1 MOL       0.0495
     78 H27        14.6389   -7.1731  -23.0583 H           1 MOL       0.0495
     79 H28        16.4884   -4.7941  -22.9418 H           1 MOL       0.0581
     80 H29        15.1603   -5.6721  -20.8874 H           1 MOL       0.0513
     81 H30        13.6996   -5.1354  -21.6919 H           1 MOL       0.0513
     82 H31        15.6848   -3.9780  -19.0429 H           1 MOL       0.0289
     83 H32        15.3506   -2.6112  -17.0236 H           1 MOL       0.0616
     84 H33        15.9620   -1.2488  -15.1418 H           1 MOL       0.0615
     85 H34        16.7253    1.0327  -15.4725 H           1 MOL       0.0610
     86 H35        16.8149    1.9659  -17.7135 H           1 MOL       0.0615
     87 H36        16.1657    0.6357  -19.6099 H           1 MOL       0.0616
@<TRIPOS>BOND
     1     1     2  ar
     2     6     1  ar
     3     2     3  ar
     4     4     3  ar
     5     5     4  ar
     6     6     5  ar
     7     7     6   1
     8     8     7   1
     9     9     8   1
    10     9    10   2
    11    11     9  am
    12    12    11   1
    13    12    13   1
    14    20    12   1
    15    13    14   1
    16    14    15  ar
    17    14    19  ar
    18    15    16  ar
    19    16    17  ar
    20    18    17  ar
    21    19    18  ar
    22    20    21  ar
    23    20    22  ar
    24    36    20   1
    25    23    24   1
    26    38    23  am
    27    24    25   1
    28    24    28   1
    29    25    26  ar
    30    25    27  ar
    31    28    29   1
    32    29    30  ar
    33    29    35  ar
    34    30    31  ar
    35    31    32  ar
    36    32    33   1
    37    34    32  ar
    38    35    34  ar
    39    37    36   1
    40    37    38   1
    41    37    40   1
    42    38    39   2
    43    40    41   1
    44    41    42   2
    45    41    43   1
    46    42    45   1
    47    43    44   1
    48    44    45   2
    49    45    46   1
    50    46    47  ar
    51    46    51  ar
    52    47    48  ar
    53    48    49  ar
    54    49    50  ar
    55    50    51  ar
    56     1    52   1
    57     2    53   1
    58     3    54   1
    59     4    55   1
    60     5    56   1
    61     7    57   1
    62     7    58   1
    63    11    59   1
    64    12    60   1
    65    13    61   1
    66    13    62   1
    67    15    63   1
    68    16    64   1
    69    17    65   1
    70    18    66   1
    71    19    67   1
    72    23    68   1
    73    24    69   1
    74    28    70   1
    75    28    71   1
    76    30    72   1
    77    31    73   1
    78    33    74   1
    79    34    75   1
    80    35    76   1
    81    36    77   1
    82    36    78   1
    83    37    79   1
    84    40    80   1
    85    40    81   1
    86    42    82   1
    87    47    83   1
    88    48    84   1
    89    49    85   1
    90    50    86   1
    91    51    87   1
@<TRIPOS>SUBSTRUCTURE
     1  MOL      1

