@<TRIPOS>MOLECULE
2xy9_ligand_014
    87    91
SMALL
GAST_HUCK
****
This file was generated by PARSER (from files_GN.cpp)

@<TRIPOS>ATOM
      1 CAQ        17.9262   -4.4238  -27.1148 C.ar        1 MOL      -0.0578
      2 CAK        18.2879   -3.8903  -28.3644 C.ar        1 MOL      -0.0685
      3 CAH        19.5414   -4.1902  -28.9254 C.ar        1 MOL      -0.0687
      4 CAL        20.4397   -5.0124  -28.2244 C.ar        1 MOL      -0.0685
      5 CAR        20.0724   -5.5682  -26.9860 C.ar        1 MOL      -0.0578
      6 CBP        18.7979   -5.3063  -26.4284 C.ar        1 MOL      -0.0130
      7 CBB        18.3723   -5.9615  -25.1583 C.3         1 MOL       0.1113
      8 OBJ        17.0256   -5.7463  -24.7143 O.3         1 MOL      -0.2506
      9 CBM        15.8330   -5.8469  -25.3507 C.2         1 MOL       0.3232
     10 OAB        15.7740   -6.1336  -26.6725 O.2         1 MOL      -0.3774
     11 NBI        14.7300   -5.6146  -24.6039 N.am        1 MOL      -0.2418
     12 CBX        13.3508   -5.4846  -24.9994 C.3         1 MOL       0.1176
     13 CBE        12.9748   -3.9969  -25.2834 C.3         1 MOL       0.0205
     14 CBQ        13.8577   -3.2381  -26.2079 C.ar        1 MOL      -0.0393
     15 CAS        15.0903   -2.7033  -25.7518 C.ar        1 MOL      -0.0602
     16 CAM        15.8574   -1.8458  -26.5660 C.ar        1 MOL      -0.0686
     17 CAI        15.4108   -1.5254  -27.8571 C.ar        1 MOL      -0.0687
     18 CAN        14.2134   -2.0847  -28.3427 C.ar        1 MOL      -0.0686
     19 CAT        13.4362   -2.9257  -27.5211 C.ar        1 MOL      -0.0602
     20 PBY        12.7594   -6.6650  -26.0461 P.3         1 MOL       0.0154
     21 OAG        13.3458   -6.6163  -27.3614 O.co2       1 MOL      -0.6174
     22 OAD        11.3567   -6.4062  -26.2526 O.co2       1 MOL      -0.6174
     23 N          13.6866  -10.3657  -27.3474 N.am        1 MOL      -0.2694
     24 CA         14.1657  -11.2468  -28.3709 C.3         1 MOL       0.1024
     25 C          15.0139  -12.2705  -27.7152 C.2         1 MOL       0.0619
     26 OXT        16.2174  -11.9370  -27.1867 O.co2       1 MOL      -0.5665
     27 O          14.5085  -13.4850  -27.3962 O.co2       1 MOL      -0.5665
     28 CB         14.8503  -10.4905  -29.5522 C.3         1 MOL       0.0108
     29 CG         16.1857   -9.8919  -29.2601 C.ar        1 MOL      -0.0499
     30 CD1        17.3379  -10.3145  -29.9627 C.ar        1 MOL      -0.0686
     31 CE1        18.6097   -9.8221  -29.6234 C.ar        1 MOL      -0.0398
     32 CZ         18.7524   -8.8885  -28.5811 C.ar        1 MOL       0.0805
     33 OH         19.9825   -8.4255  -28.2352 O.3         1 MOL      -0.3376
     34 CE2        17.6071   -8.4264  -27.9045 C.ar        1 MOL      -0.0398
     35 CD2        16.3330   -8.9148  -28.2478 C.ar        1 MOL      -0.0686
     36 CBF        12.9298   -8.1933  -25.3855 C.3         1 MOL       0.0375
     37 CBV        12.0053   -9.3216  -25.9675 C.3         1 MOL       0.0788
     38 CBN        12.4576   -9.8690  -27.2438 C.2         1 MOL       0.1848
     39 OAC        11.6501  -10.0222  -28.1589 O.2         1 MOL      -0.3964
     40 CBC        11.7291  -10.4639  -24.9353 C.3         1 MOL       0.0422
     41 CBS        12.8820  -11.2997  -24.5349 C.2         1 MOL       0.1411
     42 CBA        13.7890  -11.0849  -23.5058 C.2         1 MOL      -0.0269
     43 OBK        13.2247  -12.4619  -25.1312 O.3         1 MOL      -0.1670
     44 NBG        14.2704  -12.9642  -24.5291 N.2         1 MOL      -0.1519
     45 CBU        14.6671  -12.1693  -23.5156 C.2         1 MOL       0.0430
     46 CBT        15.7365  -12.4608  -22.6238 C.ar        1 MOL      -0.0150
     47 CAU        15.9193  -11.7417  -21.4169 C.ar        1 MOL      -0.0551
     48 CAO        16.9284  -12.0983  -20.5021 C.ar        1 MOL      -0.0621
     49 CAJ        17.7788  -13.1807  -20.7794 C.ar        1 MOL      -0.0626
     50 CAP        17.6252  -13.8991  -21.9747 C.ar        1 MOL      -0.0621
     51 CAV        16.6179  -13.5396  -22.8929 C.ar        1 MOL      -0.0551
     52 H1         17.0109   -4.1804  -26.7148 H           1 MOL       0.0557
     53 H2         17.6367   -3.2844  -28.8671 H           1 MOL       0.0599
     54 H3         19.8115   -3.7969  -29.8313 H           1 MOL       0.0559
     55 H4         21.3532   -5.2175  -28.6190 H           1 MOL       0.0599
     56 H5         20.7384   -6.1731  -26.4967 H           1 MOL       0.0557
     57 H6         19.0366   -5.6171  -24.3591 H           1 MOL       0.0776
     58 H7         18.5099   -7.0458  -25.2300 H           1 MOL       0.0776
     59 H8         14.9072   -5.4481  -23.6577 H           1 MOL       0.1888
     60 H9         12.8054   -5.6966  -24.0675 H           1 MOL       0.0787
     61 H10        12.9602   -3.4731  -24.3196 H           1 MOL       0.0465
     62 H11        11.9437   -3.9354  -25.6495 H           1 MOL       0.0465
     63 H12        15.4219   -2.8989  -24.7998 H           1 MOL       0.0557
     64 H13        16.7159   -1.4279  -26.2078 H           1 MOL       0.0599
     65 H14        15.9535   -0.8868  -28.4452 H           1 MOL       0.0559
     66 H15        13.8976   -1.8575  -29.2894 H           1 MOL       0.0599
     67 H16        12.5534   -3.2897  -27.8826 H           1 MOL       0.0557
     68 H17        14.2683  -10.2360  -26.5777 H           1 MOL       0.1876
     69 H18        13.3049  -11.7825  -28.7810 H           1 MOL       0.0747
     70 H19        14.1863   -9.6937  -29.9004 H           1 MOL       0.0446
     71 H20        14.9347  -11.1965  -30.3832 H           1 MOL       0.0446
     72 H21        17.2630  -11.0060  -30.7098 H           1 MOL       0.0530
     73 H22        19.4343  -10.1615  -30.1212 H           1 MOL       0.0525
     74 H23        20.5107   -9.2349  -28.0424 H           1 MOL       0.2458
     75 H24        17.6996   -7.7534  -27.1408 H           1 MOL       0.0525
     76 H25        15.5184   -8.5766  -27.7305 H           1 MOL       0.0530
     77 H26        12.7022   -8.0910  -24.3231 H           1 MOL       0.0495
     78 H27        13.9798   -8.4834  -25.4588 H           1 MOL       0.0495
     79 H28        11.0199   -8.8749  -26.1261 H           1 MOL       0.0581
     80 H29        10.9844  -11.1376  -25.3620 H           1 MOL       0.0513
     81 H30        11.2834  -10.0442  -24.0341 H           1 MOL       0.0513
     82 H31        13.7840  -10.2916  -22.8575 H           1 MOL       0.0289
     83 H32        15.3048  -10.9629  -21.1759 H           1 MOL       0.0616
     84 H33        17.0287  -11.5772  -19.6269 H           1 MOL       0.0615
     85 H34        18.5010  -13.4488  -20.1124 H           1 MOL       0.0610
     86 H35        18.2299  -14.6984  -22.1710 H           1 MOL       0.0615
     87 H36        16.5256  -14.0904  -23.7509 H           1 MOL       0.0616
@<TRIPOS>BOND
     1     1     2  ar
     2     6     1  ar
     3     2     3  ar
     4     4     3  ar
     5     5     4  ar
     6     6     5  ar
     7     7     6   1
     8     8     7   1
     9     9     8   1
    10     9    10   2
    11    11     9  am
    12    12    11   1
    13    12    13   1
    14    20    12   1
    15    13    14   1
    16    14    15  ar
    17    14    19  ar
    18    15    16  ar
    19    16    17  ar
    20    18    17  ar
    21    19    18  ar
    22    20    21  ar
    23    20    22  ar
    24    36    20   1
    25    23    24   1
    26    38    23  am
    27    24    25   1
    28    24    28   1
    29    25    26  ar
    30    25    27  ar
    31    28    29   1
    32    29    30  ar
    33    29    35  ar
    34    30    31  ar
    35    31    32  ar
    36    32    33   1
    37    34    32  ar
    38    35    34  ar
    39    37    36   1
    40    37    38   1
    41    37    40   1
    42    38    39   2
    43    40    41   1
    44    41    42   2
    45    41    43   1
    46    42    45   1
    47    43    44   1
    48    44    45   2
    49    45    46   1
    50    46    47  ar
    51    46    51  ar
    52    47    48  ar
    53    48    49  ar
    54    49    50  ar
    55    50    51  ar
    56     1    52   1
    57     2    53   1
    58     3    54   1
    59     4    55   1
    60     5    56   1
    61     7    57   1
    62     7    58   1
    63    11    59   1
    64    12    60   1
    65    13    61   1
    66    13    62   1
    67    15    63   1
    68    16    64   1
    69    17    65   1
    70    18    66   1
    71    19    67   1
    72    23    68   1
    73    24    69   1
    74    28    70   1
    75    28    71   1
    76    30    72   1
    77    31    73   1
    78    33    74   1
    79    34    75   1
    80    35    76   1
    81    36    77   1
    82    36    78   1
    83    37    79   1
    84    40    80   1
    85    40    81   1
    86    42    82   1
    87    47    83   1
    88    48    84   1
    89    49    85   1
    90    50    86   1
    91    51    87   1
@<TRIPOS>SUBSTRUCTURE
     1  MOL      1

