@<TRIPOS>MOLECULE
2xy9_ligand_004
    87    91
SMALL
GAST_HUCK
****
This file was generated by PARSER (from files_GN.cpp)

@<TRIPOS>ATOM
      1 CAQ        10.6132  -11.1394  -23.7199 C.ar        1 MOL      -0.0578
      2 CAK        10.5974  -12.2805  -22.8956 C.ar        1 MOL      -0.0685
      3 CAH        11.2737  -13.4460  -23.2947 C.ar        1 MOL      -0.0687
      4 CAL        11.9557  -13.4747  -24.5235 C.ar        1 MOL      -0.0685
      5 CAR        11.9618  -12.3383  -25.3525 C.ar        1 MOL      -0.0578
      6 CBP        11.3063  -11.1493  -24.9537 C.ar        1 MOL      -0.0130
      7 CBB        11.3465   -9.9463  -25.8244 C.3         1 MOL       0.1113
      8 OBJ        12.7015   -9.6847  -26.2209 O.3         1 MOL      -0.2506
      9 CBM        13.2214   -9.7016  -27.4728 C.2         1 MOL       0.3232
     10 OAB        12.4355   -9.9618  -28.5464 O.2         1 MOL      -0.3774
     11 NBI        14.5582   -9.5075  -27.5762 N.am        1 MOL      -0.2418
     12 CBX        15.3811   -9.4532  -28.7586 C.3         1 MOL       0.1176
     13 CBE        15.2048  -10.7303  -29.6507 C.3         1 MOL       0.0205
     14 CBQ        16.1847  -10.9781  -30.7534 C.ar        1 MOL      -0.0393
     15 CAS        17.5676  -10.7125  -30.5929 C.ar        1 MOL      -0.0602
     16 CAM        18.4954  -11.0813  -31.5815 C.ar        1 MOL      -0.0686
     17 CAI        18.0602  -11.7366  -32.7463 C.ar        1 MOL      -0.0687
     18 CAN        16.6934  -12.0003  -32.9354 C.ar        1 MOL      -0.0686
     19 CAT        15.7636  -11.6175  -31.9485 C.ar        1 MOL      -0.0602
     20 PBY        15.2195   -7.9829  -29.5457 P.3         1 MOL       0.0154
     21 OAG        13.8506   -7.8268  -29.9727 O.co2       1 MOL      -0.6174
     22 OAD        16.0106   -7.9723  -30.7515 O.co2       1 MOL      -0.6174
     23 N          13.7127   -5.5353  -26.7589 N.am        1 MOL      -0.2694
     24 CA         13.0494   -5.1746  -25.5391 C.3         1 MOL       0.1024
     25 C          11.6853   -4.7017  -25.8496 C.2         1 MOL       0.0619
     26 OXT        10.8237   -5.5611  -26.4389 O.co2       1 MOL      -0.5665
     27 O          11.2247   -3.4928  -25.4548 O.co2       1 MOL      -0.5665
     28 CB         13.8727   -4.1987  -24.6429 C.3         1 MOL       0.0108
     29 CG         15.2476   -4.6964  -24.3761 C.ar        1 MOL      -0.0499
     30 CD1        16.2970   -4.3851  -25.2721 C.ar        1 MOL      -0.0686
     31 CE1        17.5916   -4.8879  -25.0597 C.ar        1 MOL      -0.0398
     32 CZ         17.8638   -5.6863  -23.9359 C.ar        1 MOL       0.0805
     33 OH         19.1235   -6.1360  -23.7294 O.3         1 MOL      -0.3376
     34 CE2        16.8290   -6.0019  -23.0329 C.ar        1 MOL      -0.0398
     35 CD2        15.5263   -5.5142  -23.2554 C.ar        1 MOL      -0.0686
     36 CBF        15.7130   -6.7042  -28.5783 C.3         1 MOL       0.0375
     37 CBV        15.0081   -5.2988  -28.8456 C.3         1 MOL       0.0788
     38 CBN        14.2762   -4.7569  -27.6814 C.2         1 MOL       0.1848
     39 OAC        14.1662   -3.5317  -27.5408 O.2         1 MOL      -0.3964
     40 CBC        16.0202   -4.2613  -29.4513 C.3         1 MOL       0.0422
     41 CBS        16.8632   -4.7609  -30.5608 C.2         1 MOL       0.1411
     42 CBA        18.2487   -4.8665  -30.5572 C.2         1 MOL      -0.0269
     43 OBK        16.4303   -5.2471  -31.7458 O.3         1 MOL      -0.1670
     44 NBG        17.4657   -5.6291  -32.4521 N.2         1 MOL      -0.1519
     45 CBU        18.6184   -5.4285  -31.7778 C.2         1 MOL       0.0430
     46 CBT        19.9304   -5.7179  -32.2596 C.ar        1 MOL      -0.0150
     47 CAU        21.0920   -5.4634  -31.4854 C.ar        1 MOL      -0.0551
     48 CAO        22.3784   -5.7176  -31.9950 C.ar        1 MOL      -0.0621
     49 CAJ        22.5340   -6.2442  -33.2878 C.ar        1 MOL      -0.0626
     50 CAP        21.3993   -6.5090  -34.0715 C.ar        1 MOL      -0.0621
     51 CAV        20.1131   -6.2479  -33.5628 C.ar        1 MOL      -0.0551
     52 H1         10.1077  -10.3033  -23.4144 H           1 MOL       0.0557
     53 H2         10.0945  -12.2612  -22.0065 H           1 MOL       0.0599
     54 H3         11.2627  -14.2734  -22.6952 H           1 MOL       0.0559
     55 H4         12.4482  -14.3232  -24.8144 H           1 MOL       0.0599
     56 H5         12.4648  -12.3795  -26.2420 H           1 MOL       0.0557
     57 H6         10.9747   -9.0625  -25.3020 H           1 MOL       0.0776
     58 H7         10.7008  -10.1111  -26.6884 H           1 MOL       0.0776
     59 H8         15.0283   -9.3977  -26.7342 H           1 MOL       0.1888
     60 H9         16.4020   -9.4702  -28.3732 H           1 MOL       0.0787
     61 H10        14.1928  -10.7252  -30.0608 H           1 MOL       0.0465
     62 H11        15.2688  -11.6024  -28.9915 H           1 MOL       0.0465
     63 H12        17.9171  -10.2728  -29.7405 H           1 MOL       0.0557
     64 H13        19.4911  -10.8991  -31.4455 H           1 MOL       0.0599
     65 H14        18.7408  -12.0350  -33.4444 H           1 MOL       0.0559
     66 H15        16.3749  -12.4870  -33.7765 H           1 MOL       0.0599
     67 H16        14.7773  -11.8455  -32.0943 H           1 MOL       0.0557
     68 H17        13.7648   -6.4900  -26.9092 H           1 MOL       0.1876
     69 H18        12.9217   -6.0978  -24.9646 H           1 MOL       0.0747
     70 H19        13.3523   -4.0536  -23.6901 H           1 MOL       0.0446
     71 H20        13.9212   -3.2177  -25.1230 H           1 MOL       0.0446
     72 H21        16.1229   -3.8007  -26.0952 H           1 MOL       0.0530
     73 H22        18.3409   -4.6604  -25.7197 H           1 MOL       0.0525
     74 H23        19.2634   -6.0355  -22.7631 H           1 MOL       0.2458
     75 H24        17.0221   -6.5866  -22.2175 H           1 MOL       0.0525
     76 H25        14.7860   -5.7608  -22.5940 H           1 MOL       0.0530
     77 H26        16.7951   -6.6142  -28.6713 H           1 MOL       0.0495
     78 H27        15.5877   -7.0227  -27.5484 H           1 MOL       0.0495
     79 H28        14.2332   -5.4073  -29.6123 H           1 MOL       0.0581
     80 H29        16.6747   -3.9070  -28.6501 H           1 MOL       0.0513
     81 H30        15.4692   -3.3978  -29.8342 H           1 MOL       0.0513
     82 H31        18.8628   -4.5802  -29.7911 H           1 MOL       0.0289
     83 H32        21.0196   -5.0754  -30.5434 H           1 MOL       0.0616
     84 H33        23.2040   -5.5230  -31.4229 H           1 MOL       0.0615
     85 H34        23.4683   -6.4340  -33.6556 H           1 MOL       0.0610
     86 H35        21.5098   -6.8927  -35.0116 H           1 MOL       0.0615
     87 H36        19.3095   -6.4449  -34.1617 H           1 MOL       0.0616
@<TRIPOS>BOND
     1     1     2  ar
     2     6     1  ar
     3     2     3  ar
     4     4     3  ar
     5     5     4  ar
     6     6     5  ar
     7     7     6   1
     8     8     7   1
     9     9     8   1
    10     9    10   2
    11    11     9  am
    12    12    11   1
    13    12    13   1
    14    20    12   1
    15    13    14   1
    16    14    15  ar
    17    14    19  ar
    18    15    16  ar
    19    16    17  ar
    20    18    17  ar
    21    19    18  ar
    22    20    21  ar
    23    20    22  ar
    24    36    20   1
    25    23    24   1
    26    38    23  am
    27    24    25   1
    28    24    28   1
    29    25    26  ar
    30    25    27  ar
    31    28    29   1
    32    29    30  ar
    33    29    35  ar
    34    30    31  ar
    35    31    32  ar
    36    32    33   1
    37    34    32  ar
    38    35    34  ar
    39    37    36   1
    40    37    38   1
    41    37    40   1
    42    38    39   2
    43    40    41   1
    44    41    42   2
    45    41    43   1
    46    42    45   1
    47    43    44   1
    48    44    45   2
    49    45    46   1
    50    46    47  ar
    51    46    51  ar
    52    47    48  ar
    53    48    49  ar
    54    49    50  ar
    55    50    51  ar
    56     1    52   1
    57     2    53   1
    58     3    54   1
    59     4    55   1
    60     5    56   1
    61     7    57   1
    62     7    58   1
    63    11    59   1
    64    12    60   1
    65    13    61   1
    66    13    62   1
    67    15    63   1
    68    16    64   1
    69    17    65   1
    70    18    66   1
    71    19    67   1
    72    23    68   1
    73    24    69   1
    74    28    70   1
    75    28    71   1
    76    30    72   1
    77    31    73   1
    78    33    74   1
    79    34    75   1
    80    35    76   1
    81    36    77   1
    82    36    78   1
    83    37    79   1
    84    40    80   1
    85    40    81   1
    86    42    82   1
    87    47    83   1
    88    48    84   1
    89    49    85   1
    90    50    86   1
    91    51    87   1
@<TRIPOS>SUBSTRUCTURE
     1  MOL      1

