@<TRIPOS>MOLECULE
2xy9_ligand_052
    87    91
SMALL
GAST_HUCK
****
This file was generated by PARSER (from files_GN.cpp)

@<TRIPOS>ATOM
      1 CAQ        18.9022   -7.1924  -28.1128 C.ar        1 MOL      -0.0578
      2 CAK        19.2183   -7.0585  -29.4778 C.ar        1 MOL      -0.0685
      3 CAH        19.5597   -5.7981  -29.9997 C.ar        1 MOL      -0.0687
      4 CAL        19.5680   -4.6693  -29.1611 C.ar        1 MOL      -0.0685
      5 CAR        19.2353   -4.7994  -27.7990 C.ar        1 MOL      -0.0578
      6 CBP        18.9045   -6.0632  -27.2584 C.ar        1 MOL      -0.0130
      7 CBB        18.5392   -6.1845  -25.8250 C.3         1 MOL       0.1113
      8 OBJ        17.3091   -5.5177  -25.5179 O.3         1 MOL      -0.2506
      9 CBM        16.1151   -5.7133  -26.1461 C.2         1 MOL       0.3232
     10 OAB        16.0424   -6.5768  -27.1896 O.2         1 MOL      -0.3774
     11 NBI        15.0261   -5.1028  -25.6300 N.am        1 MOL      -0.2418
     12 CBX        13.6511   -5.2395  -26.0320 C.3         1 MOL       0.1176
     13 CBE        13.3032   -4.5395  -27.3995 C.3         1 MOL       0.0205
     14 CBQ        14.4222   -4.4391  -28.3744 C.ar        1 MOL      -0.0393
     15 CAS        14.4571   -5.2378  -29.5423 C.ar        1 MOL      -0.0602
     16 CAM        15.5703   -5.2061  -30.4040 C.ar        1 MOL      -0.0686
     17 CAI        16.6705   -4.3805  -30.1045 C.ar        1 MOL      -0.0687
     18 CAN        16.6393   -3.5608  -28.9618 C.ar        1 MOL      -0.0686
     19 CAT        15.5176   -3.5796  -28.1130 C.ar        1 MOL      -0.0602
     20 PBY        13.0680   -6.8105  -25.8480 P.3         1 MOL       0.0154
     21 OAG        13.3821   -7.5724  -27.0315 O.co2       1 MOL      -0.6174
     22 OAD        11.6244   -6.7723  -25.8275 O.co2       1 MOL      -0.6174
     23 N          13.1981  -10.9580  -25.8119 N.am        1 MOL      -0.2694
     24 CA         13.5045  -11.8557  -26.8754 C.3         1 MOL       0.1024
     25 C          13.0506  -11.2231  -28.1287 C.2         1 MOL       0.0619
     26 OXT        11.8139  -10.6825  -28.2079 O.co2       1 MOL      -0.5665
     27 O          13.8901  -11.0878  -29.1799 O.co2       1 MOL      -0.5665
     28 CB         12.8196  -13.2335  -26.6054 C.3         1 MOL       0.0108
     29 CG         12.5532  -14.1212  -27.7744 C.ar        1 MOL      -0.0499
     30 CD1        11.4372  -14.9946  -27.7666 C.ar        1 MOL      -0.0686
     31 CE1        11.1847  -15.8638  -28.8444 C.ar        1 MOL      -0.0398
     32 CZ         12.0448  -15.8695  -29.9564 C.ar        1 MOL       0.0805
     33 OH         11.7969  -16.7004  -30.9956 O.3         1 MOL      -0.3376
     34 CE2        13.1632  -15.0180  -29.9837 C.ar        1 MOL      -0.0398
     35 CD2        13.4186  -14.1584  -28.8968 C.ar        1 MOL      -0.0686
     36 CBF        13.6403   -7.5782  -24.4631 C.3         1 MOL       0.0375
     37 CBV        13.3292   -9.1023  -24.2915 C.3         1 MOL       0.0788
     38 CBN        13.8839   -9.9164  -25.3789 C.2         1 MOL       0.1848
     39 OAC        14.9972   -9.6462  -25.8264 O.2         1 MOL      -0.3964
     40 CBC        13.6791   -9.6674  -22.8493 C.3         1 MOL       0.0422
     41 CBS        14.7239  -10.7185  -22.7201 C.2         1 MOL       0.1411
     42 CBA        14.7839  -11.9216  -23.4041 C.2         1 MOL      -0.0269
     43 OBK        15.7572  -10.6978  -21.8378 O.3         1 MOL      -0.1670
     44 NBG        16.4848  -11.7776  -21.9905 N.2         1 MOL      -0.1519
     45 CBU        15.9484  -12.5535  -22.9605 C.2         1 MOL       0.0430
     46 CBT        16.5083  -13.7571  -23.4625 C.ar        1 MOL      -0.0150
     47 CAU        16.4026  -14.0973  -24.8378 C.ar        1 MOL      -0.0551
     48 CAO        17.0166  -15.2623  -25.3358 C.ar        1 MOL      -0.0621
     49 CAJ        17.7193  -16.1143  -24.4660 C.ar        1 MOL      -0.0626
     50 CAP        17.8223  -15.7970  -23.0995 C.ar        1 MOL      -0.0621
     51 CAV        17.2394  -14.6150  -22.6058 C.ar        1 MOL      -0.0551
     52 H1         18.6486   -8.1162  -27.7508 H           1 MOL       0.0557
     53 H2         19.2035   -7.8778  -30.0861 H           1 MOL       0.0599
     54 H3         19.8095   -5.7033  -30.9844 H           1 MOL       0.0559
     55 H4         19.8234   -3.7559  -29.5418 H           1 MOL       0.0599
     56 H5         19.2491   -3.9739  -27.1996 H           1 MOL       0.0557
     57 H6         19.3296   -5.7443  -25.2150 H           1 MOL       0.0776
     58 H7         18.4436   -7.2311  -25.5177 H           1 MOL       0.0776
     59 H8         15.1865   -4.5337  -24.8608 H           1 MOL       0.1888
     60 H9         13.1009   -4.6795  -25.2724 H           1 MOL       0.0787
     61 H10        12.9667   -3.5201  -27.1895 H           1 MOL       0.0465
     62 H11        12.4437   -5.0196  -27.8767 H           1 MOL       0.0465
     63 H12        13.6857   -5.8690  -29.7595 H           1 MOL       0.0557
     64 H13        15.5919   -5.8011  -31.2356 H           1 MOL       0.0599
     65 H14        17.4864   -4.3669  -30.7206 H           1 MOL       0.0559
     66 H15        17.4322   -2.9493  -28.7522 H           1 MOL       0.0599
     67 H16        15.5163   -2.9785  -27.2866 H           1 MOL       0.0557
     68 H17        12.3140  -11.0688  -25.4179 H           1 MOL       0.1876
     69 H18        14.5856  -12.0216  -26.9279 H           1 MOL       0.0747
     70 H19        11.8713  -13.0427  -26.0932 H           1 MOL       0.0446
     71 H20        13.4382  -13.8032  -25.9100 H           1 MOL       0.0446
     72 H21        10.7988  -15.0125  -26.9675 H           1 MOL       0.0530
     73 H22        10.3749  -16.4911  -28.8165 H           1 MOL       0.0525
     74 H23        12.3450  -17.4894  -30.8050 H           1 MOL       0.2458
     75 H24        13.7943  -15.0268  -30.7916 H           1 MOL       0.0525
     76 H25        14.2415  -13.5508  -28.9421 H           1 MOL       0.0530
     77 H26        13.2130   -7.0420  -23.6109 H           1 MOL       0.0495
     78 H27        14.7238   -7.4520  -24.3975 H           1 MOL       0.0495
     79 H28        12.2361   -9.1684  -24.3493 H           1 MOL       0.0581
     80 H29        12.7784  -10.1288  -22.4226 H           1 MOL       0.0513
     81 H30        13.9466   -8.8444  -22.1689 H           1 MOL       0.0513
     82 H31        14.1179  -12.2259  -24.1347 H           1 MOL       0.0289
     83 H32        15.9061  -13.4874  -25.4931 H           1 MOL       0.0616
     84 H33        16.9407  -15.4957  -26.3263 H           1 MOL       0.0615
     85 H34        18.1704  -16.9558  -24.8302 H           1 MOL       0.0610
     86 H35        18.3210  -16.4157  -22.4636 H           1 MOL       0.0615
     87 H36        17.3316  -14.3921  -21.6135 H           1 MOL       0.0616
@<TRIPOS>BOND
     1     1     2  ar
     2     6     1  ar
     3     2     3  ar
     4     4     3  ar
     5     5     4  ar
     6     6     5  ar
     7     7     6   1
     8     8     7   1
     9     9     8   1
    10     9    10   2
    11    11     9  am
    12    12    11   1
    13    12    13   1
    14    20    12   1
    15    13    14   1
    16    14    15  ar
    17    14    19  ar
    18    15    16  ar
    19    16    17  ar
    20    18    17  ar
    21    19    18  ar
    22    20    21  ar
    23    20    22  ar
    24    36    20   1
    25    23    24   1
    26    38    23  am
    27    24    25   1
    28    24    28   1
    29    25    26  ar
    30    25    27  ar
    31    28    29   1
    32    29    30  ar
    33    29    35  ar
    34    30    31  ar
    35    31    32  ar
    36    32    33   1
    37    34    32  ar
    38    35    34  ar
    39    37    36   1
    40    37    38   1
    41    37    40   1
    42    38    39   2
    43    40    41   1
    44    41    42   2
    45    41    43   1
    46    42    45   1
    47    43    44   1
    48    44    45   2
    49    45    46   1
    50    46    47  ar
    51    46    51  ar
    52    47    48  ar
    53    48    49  ar
    54    49    50  ar
    55    50    51  ar
    56     1    52   1
    57     2    53   1
    58     3    54   1
    59     4    55   1
    60     5    56   1
    61     7    57   1
    62     7    58   1
    63    11    59   1
    64    12    60   1
    65    13    61   1
    66    13    62   1
    67    15    63   1
    68    16    64   1
    69    17    65   1
    70    18    66   1
    71    19    67   1
    72    23    68   1
    73    24    69   1
    74    28    70   1
    75    28    71   1
    76    30    72   1
    77    31    73   1
    78    33    74   1
    79    34    75   1
    80    35    76   1
    81    36    77   1
    82    36    78   1
    83    37    79   1
    84    40    80   1
    85    40    81   1
    86    42    82   1
    87    47    83   1
    88    48    84   1
    89    49    85   1
    90    50    86   1
    91    51    87   1
@<TRIPOS>SUBSTRUCTURE
     1  MOL      1

