@<TRIPOS>MOLECULE
2xy9_ligand_026
    87    91
SMALL
GAST_HUCK
****
This file was generated by PARSER (from files_GN.cpp)

@<TRIPOS>ATOM
      1 CAQ        11.0660  -14.2459  -26.5497 C.ar        1 MOL      -0.0578
      2 CAK        10.7767  -14.3141  -25.1750 C.ar        1 MOL      -0.0685
      3 CAH        11.8079  -14.1784  -24.2293 C.ar        1 MOL      -0.0687
      4 CAL        13.1361  -14.0111  -24.6598 C.ar        1 MOL      -0.0685
      5 CAR        13.4280  -13.9553  -26.0357 C.ar        1 MOL      -0.0578
      6 CBP        12.3912  -14.0383  -26.9983 C.ar        1 MOL      -0.0130
      7 CBB        12.6745  -13.8706  -28.4493 C.3         1 MOL       0.1113
      8 OBJ        13.6311  -12.8437  -28.7316 O.3         1 MOL      -0.2506
      9 CBM        13.6604  -11.5549  -28.3074 C.2         1 MOL       0.3232
     10 OAB        12.7199  -11.0516  -27.4714 O.2         1 MOL      -0.3774
     11 NBI        14.7594  -10.8612  -28.6698 N.am        1 MOL      -0.2418
     12 CBX        15.2462   -9.6460  -28.0895 C.3         1 MOL       0.1176
     13 CBE        16.6582   -9.9574  -27.4725 C.3         1 MOL       0.0205
     14 CBQ        16.5890  -10.3410  -26.0319 C.ar        1 MOL      -0.0393
     15 CAS        16.2337   -9.3668  -25.0649 C.ar        1 MOL      -0.0602
     16 CAM        16.1922   -9.6909  -23.6967 C.ar        1 MOL      -0.0686
     17 CAI        16.5142  -10.9918  -23.2743 C.ar        1 MOL      -0.0687
     18 CAN        16.8831  -11.9658  -24.2192 C.ar        1 MOL      -0.0686
     19 CAT        16.9204  -11.6445  -25.5899 C.ar        1 MOL      -0.0602
     20 PBY        15.2089   -8.4342  -29.2462 P.3         1 MOL       0.0154
     21 OAG        13.8435   -8.0022  -29.3842 O.co2       1 MOL      -0.6174
     22 OAD        15.5127   -8.9662  -30.5534 O.co2       1 MOL      -0.6174
     23 N          14.5804   -5.6620  -26.9090 N.am        1 MOL      -0.2694
     24 CA         13.6299   -5.4432  -25.8539 C.3         1 MOL       0.1024
     25 C          12.4220   -6.2998  -25.9880 C.2         1 MOL       0.0619
     26 OXT        12.4453   -7.5942  -25.5883 O.co2       1 MOL      -0.5665
     27 O          11.2527   -5.8108  -26.4582 O.co2       1 MOL      -0.5665
     28 CB         13.3441   -3.9330  -25.5227 C.3         1 MOL       0.0108
     29 CG         14.0698   -2.9369  -26.3642 C.ar        1 MOL      -0.0499
     30 CD1        15.2672   -2.3229  -25.9216 C.ar        1 MOL      -0.0686
     31 CE1        15.9053   -1.3411  -26.7051 C.ar        1 MOL      -0.0398
     32 CZ         15.3693   -0.9704  -27.9531 C.ar        1 MOL       0.0805
     33 OH         15.9673    0.0108  -28.6774 O.3         1 MOL      -0.3376
     34 CE2        14.2043   -1.6051  -28.4221 C.ar        1 MOL      -0.0398
     35 CD2        13.5573   -2.5745  -27.6339 C.ar        1 MOL      -0.0686
     36 CBF        16.2205   -7.1419  -28.8975 C.3         1 MOL       0.0375
     37 CBV        15.6474   -5.6877  -29.0760 C.3         1 MOL       0.0788
     38 CBN        14.4704   -5.4758  -28.2219 C.2         1 MOL       0.1848
     39 OAC        13.4121   -5.1301  -28.7297 O.2         1 MOL      -0.3964
     40 CBC        16.6981   -4.5591  -28.7938 C.3         1 MOL       0.0422
     41 CBS        18.0045   -4.7169  -29.4640 C.2         1 MOL       0.1411
     42 CBA        18.2523   -5.0138  -30.7949 C.2         1 MOL      -0.0269
     43 OBK        19.1942   -4.7037  -28.8243 O.3         1 MOL      -0.1670
     44 NBG        20.1408   -4.9808  -29.6794 N.2         1 MOL      -0.1519
     45 CBU        19.6294   -5.1972  -30.9082 C.2         1 MOL       0.0430
     46 CBT        20.3891   -5.5997  -32.0447 C.ar        1 MOL      -0.0150
     47 CAU        19.7645   -6.0615  -33.2314 C.ar        1 MOL      -0.0551
     48 CAO        20.5294   -6.4911  -34.3325 C.ar        1 MOL      -0.0621
     49 CAJ        21.9322   -6.4645  -34.2691 C.ar        1 MOL      -0.0626
     50 CAP        22.5707   -5.9996  -33.1097 C.ar        1 MOL      -0.0621
     51 CAV        21.8073   -5.5686  -32.0098 C.ar        1 MOL      -0.0551
     52 H1         10.3011  -14.3419  -27.2219 H           1 MOL       0.0557
     53 H2          9.8144  -14.4467  -24.8671 H           1 MOL       0.0599
     54 H3         11.5915  -14.2068  -23.2306 H           1 MOL       0.0559
     55 H4         13.8870  -13.9211  -23.9737 H           1 MOL       0.0599
     56 H5         14.3994  -13.8282  -26.3318 H           1 MOL       0.0557
     57 H6         11.7637  -13.6420  -29.0066 H           1 MOL       0.0776
     58 H7         13.0755  -14.8081  -28.8346 H           1 MOL       0.0776
     59 H8         15.3466  -11.3021  -29.3052 H           1 MOL       0.1888
     60 H9         14.5772   -9.2995  -27.2949 H           1 MOL       0.0787
     61 H10        17.3389   -9.1032  -27.5299 H           1 MOL       0.0465
     62 H11        17.1498  -10.7454  -28.0522 H           1 MOL       0.0465
     63 H12        16.0066   -8.4113  -25.3530 H           1 MOL       0.0557
     64 H13        15.9244   -8.9803  -23.0112 H           1 MOL       0.0599
     65 H14        16.4855  -11.2256  -22.2793 H           1 MOL       0.0559
     66 H15        17.1188  -12.9109  -23.9100 H           1 MOL       0.0599
     67 H16        17.1941  -12.3658  -26.2629 H           1 MOL       0.0557
     68 H17        15.4590   -5.9405  -26.6008 H           1 MOL       0.1876
     69 H18        14.1526   -5.8342  -24.9748 H           1 MOL       0.0747
     70 H19        13.5963   -3.7479  -24.4735 H           1 MOL       0.0446
     71 H20        12.2746   -3.7153  -25.5915 H           1 MOL       0.0446
     72 H21        15.6682   -2.5664  -25.0127 H           1 MOL       0.0530
     73 H22        16.7512   -0.8828  -26.3625 H           1 MOL       0.0525
     74 H23        15.2426    0.5398  -29.0809 H           1 MOL       0.2458
     75 H24        13.8106   -1.3410  -29.3254 H           1 MOL       0.0525
     76 H25        12.6917   -2.9982  -27.9789 H           1 MOL       0.0530
     77 H26        17.0950   -7.2705  -29.5374 H           1 MOL       0.0495
     78 H27        16.5826   -7.2361  -27.8726 H           1 MOL       0.0495
     79 H28        15.3614   -5.5792  -30.1313 H           1 MOL       0.0581
     80 H29        16.8980   -4.5024  -27.7207 H           1 MOL       0.0513
     81 H30        16.2756   -3.5970  -29.1024 H           1 MOL       0.0513
     82 H31        17.5430   -5.1191  -31.5221 H           1 MOL       0.0289
     83 H32        18.7464   -6.1099  -33.3045 H           1 MOL       0.0616
     84 H33        20.0641   -6.8284  -35.1758 H           1 MOL       0.0615
     85 H34        22.4848   -6.7844  -35.0644 H           1 MOL       0.0610
     86 H35        23.5920   -5.9753  -33.0634 H           1 MOL       0.0615
     87 H36        22.3013   -5.2292  -31.1794 H           1 MOL       0.0616
@<TRIPOS>BOND
     1     1     2  ar
     2     6     1  ar
     3     2     3  ar
     4     4     3  ar
     5     5     4  ar
     6     6     5  ar
     7     7     6   1
     8     8     7   1
     9     9     8   1
    10     9    10   2
    11    11     9  am
    12    12    11   1
    13    12    13   1
    14    20    12   1
    15    13    14   1
    16    14    15  ar
    17    14    19  ar
    18    15    16  ar
    19    16    17  ar
    20    18    17  ar
    21    19    18  ar
    22    20    21  ar
    23    20    22  ar
    24    36    20   1
    25    23    24   1
    26    38    23  am
    27    24    25   1
    28    24    28   1
    29    25    26  ar
    30    25    27  ar
    31    28    29   1
    32    29    30  ar
    33    29    35  ar
    34    30    31  ar
    35    31    32  ar
    36    32    33   1
    37    34    32  ar
    38    35    34  ar
    39    37    36   1
    40    37    38   1
    41    37    40   1
    42    38    39   2
    43    40    41   1
    44    41    42   2
    45    41    43   1
    46    42    45   1
    47    43    44   1
    48    44    45   2
    49    45    46   1
    50    46    47  ar
    51    46    51  ar
    52    47    48  ar
    53    48    49  ar
    54    49    50  ar
    55    50    51  ar
    56     1    52   1
    57     2    53   1
    58     3    54   1
    59     4    55   1
    60     5    56   1
    61     7    57   1
    62     7    58   1
    63    11    59   1
    64    12    60   1
    65    13    61   1
    66    13    62   1
    67    15    63   1
    68    16    64   1
    69    17    65   1
    70    18    66   1
    71    19    67   1
    72    23    68   1
    73    24    69   1
    74    28    70   1
    75    28    71   1
    76    30    72   1
    77    31    73   1
    78    33    74   1
    79    34    75   1
    80    35    76   1
    81    36    77   1
    82    36    78   1
    83    37    79   1
    84    40    80   1
    85    40    81   1
    86    42    82   1
    87    47    83   1
    88    48    84   1
    89    49    85   1
    90    50    86   1
    91    51    87   1
@<TRIPOS>SUBSTRUCTURE
     1  MOL      1

