@<TRIPOS>MOLECULE
2xy9_ligand_054
    87    91
SMALL
GAST_HUCK
****
This file was generated by PARSER (from files_GN.cpp)

@<TRIPOS>ATOM
      1 CAQ        13.3759  -11.0308  -27.7826 C.ar        1 MOL      -0.0578
      2 CAK        13.7994  -12.1483  -28.5298 C.ar        1 MOL      -0.0685
      3 CAH        13.3704  -13.4373  -28.1725 C.ar        1 MOL      -0.0687
      4 CAL        12.5165  -13.6141  -27.0666 C.ar        1 MOL      -0.0685
      5 CAR        12.0993  -12.4950  -26.3151 C.ar        1 MOL      -0.0578
      6 CBP        12.5294  -11.1912  -26.6615 C.ar        1 MOL      -0.0130
      7 CBB        12.1436  -10.0136  -25.8472 C.3         1 MOL       0.1113
      8 OBJ        13.2783   -9.6037  -25.0677 O.3         1 MOL      -0.2506
      9 CBM        14.2850   -8.7505  -25.4293 C.2         1 MOL       0.3232
     10 OAB        14.3220   -8.2195  -26.6660 O.2         1 MOL      -0.3774
     11 NBI        15.3025   -8.6191  -24.5462 N.am        1 MOL      -0.2418
     12 CBX        16.5570   -7.9108  -24.6578 C.3         1 MOL       0.1176
     13 CBE        16.9710   -7.2531  -26.0249 C.3         1 MOL       0.0205
     14 CBQ        17.4528   -8.1312  -27.1557 C.ar        1 MOL      -0.0393
     15 CAS        16.8258   -9.3506  -27.5110 C.ar        1 MOL      -0.0602
     16 CAM        17.3046  -10.1339  -28.5848 C.ar        1 MOL      -0.0686
     17 CAI        18.4511   -9.7360  -29.2977 C.ar        1 MOL      -0.0687
     18 CAN        19.0893   -8.5270  -28.9672 C.ar        1 MOL      -0.0686
     19 CAT        18.5915   -7.7361  -27.9079 C.ar        1 MOL      -0.0602
     20 PBY        16.7003   -6.8765  -23.3273 P.3         1 MOL       0.0154
     21 OAG        17.6463   -5.8152  -23.5473 O.co2       1 MOL      -0.6174
     22 OAD        17.4725   -7.6349  -22.3743 O.co2       1 MOL      -0.6174
     23 N          13.3633   -4.7582  -24.0124 N.am        1 MOL      -0.2694
     24 CA         12.5350   -4.5039  -25.1781 C.3         1 MOL       0.1024
     25 C          11.9818   -5.7813  -25.6597 C.2         1 MOL       0.0619
     26 OXT        10.9649   -5.8397  -26.5344 O.co2       1 MOL      -0.5665
     27 O          12.4404   -6.9746  -25.1453 O.co2       1 MOL      -0.5665
     28 CB         13.0463   -3.6233  -26.3745 C.3         1 MOL       0.0108
     29 CG         14.4259   -3.8042  -26.9062 C.ar        1 MOL      -0.0499
     30 CD1        15.4224   -2.8232  -26.6555 C.ar        1 MOL      -0.0686
     31 CE1        16.7103   -2.9310  -27.2113 C.ar        1 MOL      -0.0398
     32 CZ         17.0308   -4.0177  -28.0438 C.ar        1 MOL       0.0805
     33 OH         18.2673   -4.1193  -28.5959 O.3         1 MOL      -0.3376
     34 CE2        16.0460   -4.9897  -28.3221 C.ar        1 MOL      -0.0398
     35 CD2        14.7622   -4.8893  -27.7561 C.ar        1 MOL      -0.0686
     36 CBF        15.3530   -6.3500  -22.4470 C.3         1 MOL       0.0375
     37 CBV        15.0983   -4.7935  -22.3413 C.3         1 MOL       0.0788
     38 CBN        14.4987   -4.2396  -23.5615 C.2         1 MOL       0.1848
     39 OAC        14.9894   -3.2322  -24.0491 O.2         1 MOL      -0.3964
     40 CBC        14.2584   -4.3664  -21.0739 C.3         1 MOL       0.0422
     41 CBS        14.8789   -3.3068  -20.2430 C.2         1 MOL       0.1411
     42 CBA        14.5604   -2.9980  -18.9253 C.2         1 MOL      -0.0269
     43 OBK        15.8819   -2.4725  -20.6088 O.3         1 MOL      -0.1670
     44 NBG        16.1937   -1.7044  -19.5999 N.2         1 MOL      -0.1519
     45 CBU        15.4237   -1.9805  -18.5323 C.2         1 MOL       0.0430
     46 CBT        15.5427   -1.3238  -17.2712 C.ar        1 MOL      -0.0150
     47 CAU        14.6607   -1.6074  -16.1955 C.ar        1 MOL      -0.0551
     48 CAO        14.8016   -0.9433  -14.9537 C.ar        1 MOL      -0.0621
     49 CAJ        15.8168    0.0071  -14.7790 C.ar        1 MOL      -0.0626
     50 CAP        16.6937    0.3014  -15.8296 C.ar        1 MOL      -0.0621
     51 CAV        16.5586   -0.3599  -17.0650 C.ar        1 MOL      -0.0551
     52 H1         13.6969  -10.1013  -28.0633 H           1 MOL       0.0557
     53 H2         14.4221  -12.0206  -29.3299 H           1 MOL       0.0599
     54 H3         13.6863  -14.2495  -28.7088 H           1 MOL       0.0559
     55 H4         12.2107  -14.5504  -26.7996 H           1 MOL       0.0599
     56 H5         11.4955  -12.6458  -25.5059 H           1 MOL       0.0557
     57 H6         11.3424  -10.2610  -25.1471 H           1 MOL       0.0776
     58 H7         11.7696   -9.2108  -26.4911 H           1 MOL       0.0776
     59 H8         15.1805   -9.0933  -23.7126 H           1 MOL       0.1888
     60 H9         17.2990   -8.6980  -24.5148 H           1 MOL       0.0787
     61 H10        17.7923   -6.5576  -25.8213 H           1 MOL       0.0465
     62 H11        16.1537   -6.6242  -26.3683 H           1 MOL       0.0465
     63 H12        16.0259   -9.7020  -26.9785 H           1 MOL       0.0557
     64 H13        16.8421  -11.0089  -28.8221 H           1 MOL       0.0599
     65 H14        18.8299  -10.3352  -30.0382 H           1 MOL       0.0559
     66 H15        19.9116   -8.2260  -29.4925 H           1 MOL       0.0599
     67 H16        19.1006   -6.8759  -27.6801 H           1 MOL       0.0557
     68 H17        13.0105   -5.4715  -23.4554 H           1 MOL       0.1876
     69 H18        11.6713   -3.9658  -24.7649 H           1 MOL       0.0747
     70 H19        12.9178   -2.5920  -26.0565 H           1 MOL       0.0446
     71 H20        12.3583   -3.7487  -27.2224 H           1 MOL       0.0446
     72 H21        15.2199   -2.0163  -26.0684 H           1 MOL       0.0530
     73 H22        17.4057   -2.2064  -27.0146 H           1 MOL       0.0525
     74 H23        18.6965   -3.2396  -28.4733 H           1 MOL       0.2458
     75 H24        16.2679   -5.7742  -28.9422 H           1 MOL       0.0525
     76 H25        14.0630   -5.6014  -27.9759 H           1 MOL       0.0530
     77 H26        15.4765   -6.7405  -21.4300 H           1 MOL       0.0495
     78 H27        14.4659   -6.8478  -22.8384 H           1 MOL       0.0495
     79 H28        16.0890   -4.3398  -22.2250 H           1 MOL       0.0581
     80 H29        14.0961   -5.2261  -20.4162 H           1 MOL       0.0513
     81 H30        13.2578   -4.0086  -21.3401 H           1 MOL       0.0513
     82 H31        13.8444   -3.4639  -18.3634 H           1 MOL       0.0289
     83 H32        13.9109   -2.2888  -16.2917 H           1 MOL       0.0616
     84 H33        14.1584   -1.1568  -14.1907 H           1 MOL       0.0615
     85 H34        15.9210    0.4825  -13.8762 H           1 MOL       0.0610
     86 H35        17.4403    0.9911  -15.7009 H           1 MOL       0.0615
     87 H36        17.2207   -0.1256  -17.8116 H           1 MOL       0.0616
@<TRIPOS>BOND
     1     1     2  ar
     2     6     1  ar
     3     2     3  ar
     4     4     3  ar
     5     5     4  ar
     6     6     5  ar
     7     7     6   1
     8     8     7   1
     9     9     8   1
    10     9    10   2
    11    11     9  am
    12    12    11   1
    13    12    13   1
    14    20    12   1
    15    13    14   1
    16    14    15  ar
    17    14    19  ar
    18    15    16  ar
    19    16    17  ar
    20    18    17  ar
    21    19    18  ar
    22    20    21  ar
    23    20    22  ar
    24    36    20   1
    25    23    24   1
    26    38    23  am
    27    24    25   1
    28    24    28   1
    29    25    26  ar
    30    25    27  ar
    31    28    29   1
    32    29    30  ar
    33    29    35  ar
    34    30    31  ar
    35    31    32  ar
    36    32    33   1
    37    34    32  ar
    38    35    34  ar
    39    37    36   1
    40    37    38   1
    41    37    40   1
    42    38    39   2
    43    40    41   1
    44    41    42   2
    45    41    43   1
    46    42    45   1
    47    43    44   1
    48    44    45   2
    49    45    46   1
    50    46    47  ar
    51    46    51  ar
    52    47    48  ar
    53    48    49  ar
    54    49    50  ar
    55    50    51  ar
    56     1    52   1
    57     2    53   1
    58     3    54   1
    59     4    55   1
    60     5    56   1
    61     7    57   1
    62     7    58   1
    63    11    59   1
    64    12    60   1
    65    13    61   1
    66    13    62   1
    67    15    63   1
    68    16    64   1
    69    17    65   1
    70    18    66   1
    71    19    67   1
    72    23    68   1
    73    24    69   1
    74    28    70   1
    75    28    71   1
    76    30    72   1
    77    31    73   1
    78    33    74   1
    79    34    75   1
    80    35    76   1
    81    36    77   1
    82    36    78   1
    83    37    79   1
    84    40    80   1
    85    40    81   1
    86    42    82   1
    87    47    83   1
    88    48    84   1
    89    49    85   1
    90    50    86   1
    91    51    87   1
@<TRIPOS>SUBSTRUCTURE
     1  MOL      1

