@<TRIPOS>MOLECULE
2xy9_ligand_032
    87    91
SMALL
GAST_HUCK
****
This file was generated by PARSER (from files_GN.cpp)

@<TRIPOS>ATOM
      1 CAQ        10.9922  -14.2939  -26.6063 C.ar        1 MOL      -0.0578
      2 CAK        10.6043  -14.4102  -25.2584 C.ar        1 MOL      -0.0685
      3 CAH        11.5619  -14.2993  -24.2353 C.ar        1 MOL      -0.0687
      4 CAL        12.9132  -14.0935  -24.5631 C.ar        1 MOL      -0.0685
      5 CAR        13.3017  -13.9847  -25.9117 C.ar        1 MOL      -0.0578
      6 CBP        12.3436  -14.0651  -26.9520 C.ar        1 MOL      -0.0130
      7 CBB        12.7476  -13.8754  -28.3727 C.3         1 MOL       0.1113
      8 OBJ        13.7295  -12.8409  -28.5371 O.3         1 MOL      -0.2506
      9 CBM        13.6023  -11.5246  -28.2301 C.2         1 MOL       0.3232
     10 OAB        12.4445  -11.0475  -27.7110 O.2         1 MOL      -0.3774
     11 NBI        14.7130  -10.7646  -28.3462 N.am        1 MOL      -0.2418
     12 CBX        14.9193   -9.4685  -27.7543 C.3         1 MOL       0.1176
     13 CBE        16.1457   -9.5479  -26.7623 C.3         1 MOL       0.0205
     14 CBQ        15.8749   -9.1686  -25.3359 C.ar        1 MOL      -0.0393
     15 CAS        15.0304   -8.0769  -25.0016 C.ar        1 MOL      -0.0602
     16 CAM        14.7829   -7.7264  -23.6603 C.ar        1 MOL      -0.0686
     17 CAI        15.3993   -8.4467  -22.6221 C.ar        1 MOL      -0.0687
     18 CAN        16.2692   -9.5093  -22.9290 C.ar        1 MOL      -0.0686
     19 CAT        16.5019   -9.8676  -24.2727 C.ar        1 MOL      -0.0602
     20 PBY        15.0271   -8.3128  -28.9757 P.3         1 MOL       0.0154
     21 OAG        13.6853   -7.8607  -29.2340 O.co2       1 MOL      -0.6174
     22 OAD        15.3520   -8.9106  -30.2471 O.co2       1 MOL      -0.6174
     23 N          14.4694   -5.2139  -26.9748 N.am        1 MOL      -0.2694
     24 CA         13.5785   -4.8960  -25.8935 C.3         1 MOL       0.1024
     25 C          12.1388   -4.7221  -26.2332 C.2         1 MOL       0.0619
     26 OXT        11.4054   -5.8105  -26.5655 O.co2       1 MOL      -0.5665
     27 O          11.4705   -3.5627  -26.0374 O.co2       1 MOL      -0.5665
     28 CB         14.2130   -3.7153  -25.0648 C.3         1 MOL       0.0108
     29 CG         14.1458   -3.8292  -23.5732 C.ar        1 MOL      -0.0499
     30 CD1        13.0232   -4.3819  -22.9143 C.ar        1 MOL      -0.0686
     31 CE1        12.9767   -4.4851  -21.5112 C.ar        1 MOL      -0.0398
     32 CZ         14.0581   -4.0292  -20.7333 C.ar        1 MOL       0.0805
     33 OH         14.0163   -4.1636  -19.3825 O.3         1 MOL      -0.3376
     34 CE2        15.1643   -3.4364  -21.3677 C.ar        1 MOL      -0.0398
     35 CD2        15.2044   -3.3359  -22.7698 C.ar        1 MOL      -0.0686
     36 CBF        16.0506   -6.9986  -28.7547 C.3         1 MOL       0.0375
     37 CBV        15.4934   -5.5760  -29.1347 C.3         1 MOL       0.0788
     38 CBN        14.3413   -5.2024  -28.2976 C.2         1 MOL       0.1848
     39 OAC        13.2931   -4.8718  -28.8378 O.2         1 MOL      -0.3964
     40 CBC        16.5609   -4.4334  -29.0448 C.3         1 MOL       0.0422
     41 CBS        17.8427   -4.7198  -29.7150 C.2         1 MOL       0.1411
     42 CBA        18.0627   -5.0302  -31.0487 C.2         1 MOL      -0.0269
     43 OBK        19.0379   -4.7910  -29.0880 O.3         1 MOL      -0.1670
     44 NBG        19.9602   -5.1211  -29.9520 N.2         1 MOL      -0.1519
     45 CBU        19.4263   -5.2943  -31.1780 C.2         1 MOL       0.0430
     46 CBT        20.1607   -5.6906  -32.3345 C.ar        1 MOL      -0.0150
     47 CAU        19.5454   -5.8291  -33.6049 C.ar        1 MOL      -0.0551
     48 CAO        20.2880   -6.2316  -34.7317 C.ar        1 MOL      -0.0621
     49 CAJ        21.6597   -6.5093  -34.6090 C.ar        1 MOL      -0.0626
     50 CAP        22.2919   -6.3731  -33.3630 C.ar        1 MOL      -0.0621
     51 CAV        21.5518   -5.9609  -32.2397 C.ar        1 MOL      -0.0551
     52 H1         10.2760  -14.3744  -27.3341 H           1 MOL       0.0557
     53 H2          9.6236  -14.5642  -25.0226 H           1 MOL       0.0599
     54 H3         11.2764  -14.3733  -23.2562 H           1 MOL       0.0559
     55 H4         13.6129  -14.0196  -23.8213 H           1 MOL       0.0599
     56 H5         14.2889  -13.8274  -26.1303 H           1 MOL       0.0557
     57 H6         11.8913  -13.6352  -29.0071 H           1 MOL       0.0776
     58 H7         13.1845  -14.8059  -28.7378 H           1 MOL       0.0776
     59 H8         15.4878  -11.1850  -28.7545 H           1 MOL       0.1888
     60 H9         14.0248   -9.2037  -27.1876 H           1 MOL       0.0787
     61 H10        16.9697   -8.9146  -27.1067 H           1 MOL       0.0465
     62 H11        16.5390  -10.5745  -26.7700 H           1 MOL       0.0465
     63 H12        14.5769   -7.5321  -25.7334 H           1 MOL       0.0557
     64 H13        14.1524   -6.9481  -23.4404 H           1 MOL       0.0599
     65 H14        15.2137   -8.1899  -21.6487 H           1 MOL       0.0559
     66 H15        16.7309  -10.0181  -22.1743 H           1 MOL       0.0599
     67 H16        17.1477  -10.6333  -24.4667 H           1 MOL       0.0557
     68 H17        15.3450   -5.4832  -26.6681 H           1 MOL       0.1876
     69 H18        13.6017   -5.7847  -25.2597 H           1 MOL       0.0747
     70 H19        13.7461   -2.7730  -25.3424 H           1 MOL       0.0446
     71 H20        15.2646   -3.6053  -25.3485 H           1 MOL       0.0446
     72 H21        12.2309   -4.7256  -23.4562 H           1 MOL       0.0530
     73 H22        12.1562   -4.8941  -21.0584 H           1 MOL       0.0525
     74 H23        14.9125   -4.4533  -19.1057 H           1 MOL       0.2458
     75 H24        15.9435   -3.0724  -20.8127 H           1 MOL       0.0525
     76 H25        16.0147   -2.8887  -23.2032 H           1 MOL       0.0530
     77 H26        16.9410   -7.2108  -29.3513 H           1 MOL       0.0495
     78 H27        16.3986   -6.9847  -27.7232 H           1 MOL       0.0495
     79 H28        15.1756   -5.6215  -30.1858 H           1 MOL       0.0581
     80 H29        16.7834   -4.2157  -27.9967 H           1 MOL       0.0513
     81 H30        16.1530   -3.5255  -29.4916 H           1 MOL       0.0513
     82 H31        17.3477   -5.0759  -31.7754 H           1 MOL       0.0289
     83 H32        18.5521   -5.6328  -33.7281 H           1 MOL       0.0616
     84 H33        19.8325   -6.3187  -35.6418 H           1 MOL       0.0615
     85 H34        22.1937   -6.8141  -35.4235 H           1 MOL       0.0610
     86 H35        23.2913   -6.5695  -33.2732 H           1 MOL       0.0615
     87 H36        22.0452   -5.8644  -31.3515 H           1 MOL       0.0616
@<TRIPOS>BOND
     1     1     2  ar
     2     6     1  ar
     3     2     3  ar
     4     4     3  ar
     5     5     4  ar
     6     6     5  ar
     7     7     6   1
     8     8     7   1
     9     9     8   1
    10     9    10   2
    11    11     9  am
    12    12    11   1
    13    12    13   1
    14    20    12   1
    15    13    14   1
    16    14    15  ar
    17    14    19  ar
    18    15    16  ar
    19    16    17  ar
    20    18    17  ar
    21    19    18  ar
    22    20    21  ar
    23    20    22  ar
    24    36    20   1
    25    23    24   1
    26    38    23  am
    27    24    25   1
    28    24    28   1
    29    25    26  ar
    30    25    27  ar
    31    28    29   1
    32    29    30  ar
    33    29    35  ar
    34    30    31  ar
    35    31    32  ar
    36    32    33   1
    37    34    32  ar
    38    35    34  ar
    39    37    36   1
    40    37    38   1
    41    37    40   1
    42    38    39   2
    43    40    41   1
    44    41    42   2
    45    41    43   1
    46    42    45   1
    47    43    44   1
    48    44    45   2
    49    45    46   1
    50    46    47  ar
    51    46    51  ar
    52    47    48  ar
    53    48    49  ar
    54    49    50  ar
    55    50    51  ar
    56     1    52   1
    57     2    53   1
    58     3    54   1
    59     4    55   1
    60     5    56   1
    61     7    57   1
    62     7    58   1
    63    11    59   1
    64    12    60   1
    65    13    61   1
    66    13    62   1
    67    15    63   1
    68    16    64   1
    69    17    65   1
    70    18    66   1
    71    19    67   1
    72    23    68   1
    73    24    69   1
    74    28    70   1
    75    28    71   1
    76    30    72   1
    77    31    73   1
    78    33    74   1
    79    34    75   1
    80    35    76   1
    81    36    77   1
    82    36    78   1
    83    37    79   1
    84    40    80   1
    85    40    81   1
    86    42    82   1
    87    47    83   1
    88    48    84   1
    89    49    85   1
    90    50    86   1
    91    51    87   1
@<TRIPOS>SUBSTRUCTURE
     1  MOL      1

