@<TRIPOS>MOLECULE
2xy9_ligand_063
    87    91
SMALL
GAST_HUCK
****
This file was generated by PARSER (from files_GN.cpp)

@<TRIPOS>ATOM
      1 CAQ        12.3200   -7.2836  -25.2543 C.ar        1 MOL      -0.0578
      2 CAK        11.9954   -5.9156  -25.1799 C.ar        1 MOL      -0.0685
      3 CAH        12.6681   -5.0825  -24.2689 C.ar        1 MOL      -0.0687
      4 CAL        13.6615   -5.6207  -23.4342 C.ar        1 MOL      -0.0685
      5 CAR        14.0196   -6.9781  -23.5401 C.ar        1 MOL      -0.0578
      6 CBP        13.3430   -7.8313  -24.4434 C.ar        1 MOL      -0.0130
      7 CBB        13.6925   -9.2731  -24.5159 C.3         1 MOL       0.1113
      8 OBJ        14.8150   -9.4949  -25.3830 O.3         1 MOL      -0.2506
      9 CBM        14.7966   -9.5208  -26.7418 C.2         1 MOL       0.3232
     10 OAB        13.6259   -9.3722  -27.4026 O.2         1 MOL      -0.3774
     11 NBI        15.9763   -9.6875  -27.3878 N.am        1 MOL      -0.2418
     12 CBX        16.2244   -9.7043  -28.8060 C.3         1 MOL       0.1176
     13 CBE        15.4483  -10.8455  -29.5466 C.3         1 MOL       0.0205
     14 CBQ        15.8140  -11.1931  -30.9599 C.ar        1 MOL      -0.0393
     15 CAS        16.9998  -10.7645  -31.6125 C.ar        1 MOL      -0.0602
     16 CAM        17.2095  -11.0179  -32.9785 C.ar        1 MOL      -0.0686
     17 CAI        16.2508  -11.7277  -33.7204 C.ar        1 MOL      -0.0687
     18 CAN        15.0988  -12.2192  -33.0834 C.ar        1 MOL      -0.0686
     19 CAT        14.8972  -11.9692  -31.7120 C.ar        1 MOL      -0.0602
     20 PBY        16.0705   -8.1665  -29.4896 P.3         1 MOL       0.0154
     21 OAG        14.9584   -7.4557  -28.9124 O.co2       1 MOL      -0.6174
     22 OAD        15.6669   -8.2415  -30.8705 O.co2       1 MOL      -0.6174
     23 N          16.0550   -4.8940  -28.6008 N.am        1 MOL      -0.2694
     24 CA         15.2616   -3.8838  -27.9544 C.3         1 MOL       0.1024
     25 C          14.4848   -3.0663  -28.9178 C.2         1 MOL       0.0619
     26 OXT        13.9014   -3.6629  -29.9819 O.co2       1 MOL      -0.5665
     27 O          14.3220   -1.7315  -28.7668 O.co2       1 MOL      -0.5665
     28 CB         16.1103   -3.0668  -26.9316 C.3         1 MOL       0.0108
     29 CG         16.8209   -3.9260  -25.9375 C.ar        1 MOL      -0.0499
     30 CD1        17.9696   -4.6661  -26.3097 C.ar        1 MOL      -0.0686
     31 CE1        18.5749   -5.5667  -25.4168 C.ar        1 MOL      -0.0398
     32 CZ         18.0769   -5.7021  -24.1093 C.ar        1 MOL       0.0805
     33 OH         18.6837   -6.5626  -23.2564 O.3         1 MOL      -0.3376
     34 CE2        16.9706   -4.9318  -23.7036 C.ar        1 MOL      -0.0398
     35 CD2        16.3448   -4.0539  -24.6125 C.ar        1 MOL      -0.0686
     36 CBF        17.5006   -7.3004  -29.4133 C.3         1 MOL       0.0375
     37 CBV        17.6189   -5.9353  -30.1924 C.3         1 MOL       0.0788
     38 CBN        16.9052   -4.7833  -29.6150 C.2         1 MOL       0.1848
     39 OAC        17.0308   -3.7012  -30.1733 O.2         1 MOL      -0.3964
     40 CBC        19.1429   -5.6114  -30.4599 C.3         1 MOL       0.0422
     41 CBS        19.5861   -6.0755  -31.7911 C.2         1 MOL       0.1411
     42 CBA        20.4994   -7.0674  -32.1165 C.2         1 MOL      -0.0269
     43 OBK        19.1210   -5.5635  -32.9506 O.3         1 MOL      -0.1670
     44 NBG        19.6886   -6.1816  -33.9503 N.2         1 MOL      -0.1519
     45 CBU        20.5466   -7.1226  -33.5071 C.2         1 MOL       0.0430
     46 CBT        21.3218   -7.9696  -34.3493 C.ar        1 MOL      -0.0150
     47 CAU        22.1847   -8.9631  -33.8216 C.ar        1 MOL      -0.0551
     48 CAO        22.9623   -9.7762  -34.6674 C.ar        1 MOL      -0.0621
     49 CAJ        22.8909   -9.6121  -36.0613 C.ar        1 MOL      -0.0626
     50 CAP        22.0335   -8.6429  -36.6078 C.ar        1 MOL      -0.0621
     51 CAV        21.2573   -7.8311  -35.7603 C.ar        1 MOL      -0.0551
     52 H1         11.8043   -7.8764  -25.9074 H           1 MOL       0.0557
     53 H2         11.2613   -5.5305  -25.7783 H           1 MOL       0.0599
     54 H3         12.4334   -4.0880  -24.2103 H           1 MOL       0.0559
     55 H4         14.1260   -5.0180  -22.7515 H           1 MOL       0.0599
     56 H5         14.7682   -7.3410  -22.9430 H           1 MOL       0.0557
     57 H6         12.8385   -9.8735  -24.8428 H           1 MOL       0.0776
     58 H7         13.9659   -9.6317  -23.5225 H           1 MOL       0.0776
     59 H8         16.7534   -9.8165  -26.8192 H           1 MOL       0.1888
     60 H9         17.2787   -9.9772  -28.8641 H           1 MOL       0.0787
     61 H10        14.3899  -10.5722  -29.5376 H           1 MOL       0.0465
     62 H11        15.5425  -11.7614  -28.9586 H           1 MOL       0.0465
     63 H12        17.7187  -10.2382  -31.1153 H           1 MOL       0.0557
     64 H13        18.0550  -10.6699  -33.4354 H           1 MOL       0.0599
     65 H14        16.4008  -11.8998  -34.7161 H           1 MOL       0.0559
     66 H15        14.4084  -12.7550  -33.6148 H           1 MOL       0.0599
     67 H16        14.0524  -12.3369  -31.2722 H           1 MOL       0.0557
     68 H17        15.9767   -5.7711  -28.2058 H           1 MOL       0.1876
     69 H18        14.5133   -4.4349  -27.3787 H           1 MOL       0.0747
     70 H19        15.4387   -2.3774  -26.4091 H           1 MOL       0.0446
     71 H20        16.8440   -2.4554  -27.4613 H           1 MOL       0.0446
     72 H21        18.3709   -4.5612  -27.2423 H           1 MOL       0.0530
     73 H22        19.3881   -6.1099  -25.7170 H           1 MOL       0.0525
     74 H23        18.5966   -6.1541  -22.3708 H           1 MOL       0.2458
     75 H24        16.6170   -5.0231  -22.7482 H           1 MOL       0.0525
     76 H25        15.5262   -3.5223  -24.3052 H           1 MOL       0.0530
     77 H26        18.2625   -7.9788  -29.8093 H           1 MOL       0.0495
     78 H27        17.7501   -7.1426  -28.3603 H           1 MOL       0.0495
     79 H28        17.1282   -6.0831  -31.1637 H           1 MOL       0.0581
     80 H29        19.7700   -6.0599  -29.6820 H           1 MOL       0.0513
     81 H30        19.3577   -4.5393  -30.4333 H           1 MOL       0.0513
     82 H31        21.0179   -7.6404  -31.4507 H           1 MOL       0.0289
     83 H32        22.2642   -9.1108  -32.8142 H           1 MOL       0.0616
     84 H33        23.5842  -10.4858  -34.2702 H           1 MOL       0.0615
     85 H34        23.4657  -10.1937  -36.6752 H           1 MOL       0.0610
     86 H35        21.9844   -8.5227  -37.6232 H           1 MOL       0.0615
     87 H36        20.6487   -7.1317  -36.1936 H           1 MOL       0.0616
@<TRIPOS>BOND
     1     1     2  ar
     2     6     1  ar
     3     2     3  ar
     4     4     3  ar
     5     5     4  ar
     6     6     5  ar
     7     7     6   1
     8     8     7   1
     9     9     8   1
    10     9    10   2
    11    11     9  am
    12    12    11   1
    13    12    13   1
    14    20    12   1
    15    13    14   1
    16    14    15  ar
    17    14    19  ar
    18    15    16  ar
    19    16    17  ar
    20    18    17  ar
    21    19    18  ar
    22    20    21  ar
    23    20    22  ar
    24    36    20   1
    25    23    24   1
    26    38    23  am
    27    24    25   1
    28    24    28   1
    29    25    26  ar
    30    25    27  ar
    31    28    29   1
    32    29    30  ar
    33    29    35  ar
    34    30    31  ar
    35    31    32  ar
    36    32    33   1
    37    34    32  ar
    38    35    34  ar
    39    37    36   1
    40    37    38   1
    41    37    40   1
    42    38    39   2
    43    40    41   1
    44    41    42   2
    45    41    43   1
    46    42    45   1
    47    43    44   1
    48    44    45   2
    49    45    46   1
    50    46    47  ar
    51    46    51  ar
    52    47    48  ar
    53    48    49  ar
    54    49    50  ar
    55    50    51  ar
    56     1    52   1
    57     2    53   1
    58     3    54   1
    59     4    55   1
    60     5    56   1
    61     7    57   1
    62     7    58   1
    63    11    59   1
    64    12    60   1
    65    13    61   1
    66    13    62   1
    67    15    63   1
    68    16    64   1
    69    17    65   1
    70    18    66   1
    71    19    67   1
    72    23    68   1
    73    24    69   1
    74    28    70   1
    75    28    71   1
    76    30    72   1
    77    31    73   1
    78    33    74   1
    79    34    75   1
    80    35    76   1
    81    36    77   1
    82    36    78   1
    83    37    79   1
    84    40    80   1
    85    40    81   1
    86    42    82   1
    87    47    83   1
    88    48    84   1
    89    49    85   1
    90    50    86   1
    91    51    87   1
@<TRIPOS>SUBSTRUCTURE
     1  MOL      1

