@<TRIPOS>MOLECULE
2xy9_ligand_033
    87    91
SMALL
GAST_HUCK
****
This file was generated by PARSER (from files_GN.cpp)

@<TRIPOS>ATOM
      1 CAQ        17.2356    2.9587  -15.5360 C.ar        1 MOL      -0.0578
      2 CAK        16.8441    3.1430  -14.1965 C.ar        1 MOL      -0.0685
      3 CAH        16.3254    2.0627  -13.4633 C.ar        1 MOL      -0.0687
      4 CAL        16.1939    0.8019  -14.0695 C.ar        1 MOL      -0.0685
      5 CAR        16.5961    0.6184  -15.4080 C.ar        1 MOL      -0.0578
      6 CBP        17.1217    1.6944  -16.1643 C.ar        1 MOL      -0.0130
      7 CBB        17.6604    1.4991  -17.5418 C.3         1 MOL       0.1113
      8 OBJ        16.8624    0.6517  -18.3830 O.3         1 MOL      -0.2506
      9 CBM        16.8320   -0.7061  -18.3910 C.2         1 MOL       0.3232
     10 OAB        17.6155   -1.4177  -17.5482 O.2         1 MOL      -0.3774
     11 NBI        15.9323   -1.3043  -19.2026 N.am        1 MOL      -0.2418
     12 CBX        15.4869   -2.6622  -19.0654 C.3         1 MOL       0.1176
     13 CBE        14.7297   -2.8616  -17.7053 C.3         1 MOL       0.0205
     14 CBQ        13.3981   -2.2018  -17.5313 C.ar        1 MOL      -0.0393
     15 CAS        12.2681   -2.9647  -17.1489 C.ar        1 MOL      -0.0602
     16 CAM        11.0217   -2.3532  -16.9263 C.ar        1 MOL      -0.0686
     17 CAI        10.8777   -0.9672  -17.1063 C.ar        1 MOL      -0.0687
     18 CAN        11.9845   -0.1920  -17.4910 C.ar        1 MOL      -0.0686
     19 CAT        13.2385   -0.8024  -17.6875 C.ar        1 MOL      -0.0602
     20 PBY        14.6252   -3.1690  -20.4153 P.3         1 MOL       0.0154
     21 OAG        13.8022   -2.0699  -20.8711 O.co2       1 MOL      -0.6174
     22 OAD        13.6352   -4.1554  -20.0385 O.co2       1 MOL      -0.6174
     23 N          13.8322   -5.1128  -24.4619 N.am        1 MOL      -0.2694
     24 CA         13.4770   -4.8801  -25.8364 C.3         1 MOL       0.1024
     25 C          11.9942   -4.9059  -25.9183 C.2         1 MOL       0.0619
     26 OXT        11.3006   -5.9312  -26.4664 O.co2       1 MOL      -0.5665
     27 O          11.2842   -3.8561  -25.4449 O.co2       1 MOL      -0.5665
     28 CB         14.1561   -5.8939  -26.8160 C.3         1 MOL       0.0108
     29 CG         15.6147   -5.6557  -26.9977 C.ar        1 MOL      -0.0499
     30 CD1        16.5734   -6.6547  -26.7021 C.ar        1 MOL      -0.0686
     31 CE1        17.9518   -6.3696  -26.7642 C.ar        1 MOL      -0.0398
     32 CZ         18.3947   -5.0856  -27.1369 C.ar        1 MOL       0.0805
     33 OH         19.7239   -4.8081  -27.1300 O.3         1 MOL      -0.3376
     34 CE2        17.4511   -4.1047  -27.5012 C.ar        1 MOL      -0.0398
     35 CD2        16.0750   -4.3970  -27.4538 C.ar        1 MOL      -0.0686
     36 CBF        15.5529   -3.6696  -21.7205 C.3         1 MOL       0.0375
     37 CBV        15.1579   -5.0348  -22.4271 C.3         1 MOL       0.0788
     38 CBN        15.0094   -4.8850  -23.8771 C.2         1 MOL       0.1848
     39 OAC        15.9771   -4.5155  -24.5317 O.2         1 MOL      -0.3964
     40 CBC        16.1430   -6.2045  -22.0836 C.3         1 MOL       0.0422
     41 CBS        15.5855   -7.5486  -22.3405 C.2         1 MOL       0.1411
     42 CBA        15.9973   -8.5229  -23.2419 C.2         1 MOL      -0.0269
     43 OBK        14.5504   -8.0671  -21.6463 O.3         1 MOL      -0.1670
     44 NBG        14.3005   -9.2729  -22.0752 N.2         1 MOL      -0.1519
     45 CBU        15.1517   -9.6176  -23.0622 C.2         1 MOL       0.0430
     46 CBT        15.1304  -10.8747  -23.7396 C.ar        1 MOL      -0.0150
     47 CAU        16.1030  -11.2173  -24.7125 C.ar        1 MOL      -0.0551
     48 CAO        16.0674  -12.4631  -25.3692 C.ar        1 MOL      -0.0621
     49 CAJ        15.0574  -13.3917  -25.0687 C.ar        1 MOL      -0.0626
     50 CAP        14.0825  -13.0744  -24.1094 C.ar        1 MOL      -0.0621
     51 CAV        14.1189  -11.8288  -23.4533 C.ar        1 MOL      -0.0551
     52 H1         17.6366    3.7511  -16.0420 H           1 MOL       0.0557
     53 H2         16.9533    4.0564  -13.7539 H           1 MOL       0.0599
     54 H3         16.0554    2.1900  -12.4854 H           1 MOL       0.0559
     55 H4         15.8219    0.0132  -13.5329 H           1 MOL       0.0599
     56 H5         16.5103   -0.3151  -15.8111 H           1 MOL       0.0557
     57 H6         18.6767    1.1047  -17.4577 H           1 MOL       0.0776
     58 H7         17.7296    2.4591  -18.0598 H           1 MOL       0.0776
     59 H8         15.4527   -0.7318  -19.8192 H           1 MOL       0.1888
     60 H9         16.3711   -3.3066  -19.0219 H           1 MOL       0.0787
     61 H10        15.3629   -2.5165  -16.8835 H           1 MOL       0.0465
     62 H11        14.6281   -3.9405  -17.5556 H           1 MOL       0.0465
     63 H12        12.3478   -3.9736  -17.0133 H           1 MOL       0.0557
     64 H13        10.2230   -2.9189  -16.6308 H           1 MOL       0.0599
     65 H14         9.9719   -0.5230  -16.9538 H           1 MOL       0.0559
     66 H15        11.8794    0.8168  -17.6200 H           1 MOL       0.0599
     67 H16        14.0344   -0.2114  -17.9411 H           1 MOL       0.0557
     68 H17        13.1126   -5.4111  -23.8800 H           1 MOL       0.1876
     69 H18        13.7694   -3.8615  -26.1108 H           1 MOL       0.0747
     70 H19        13.6848   -5.8281  -27.8022 H           1 MOL       0.0446
     71 H20        13.9779   -6.9071  -26.4453 H           1 MOL       0.0446
     72 H21        16.2770   -7.5888  -26.4088 H           1 MOL       0.0530
     73 H22        18.6349   -7.0987  -26.5341 H           1 MOL       0.0525
     74 H23        19.7944   -3.8301  -27.0629 H           1 MOL       0.2458
     75 H24        17.7656   -3.1800  -27.8075 H           1 MOL       0.0525
     76 H25        15.4083   -3.6675  -27.7221 H           1 MOL       0.0530
     77 H26        16.5882   -3.7332  -21.3810 H           1 MOL       0.0495
     78 H27        15.5522   -2.8477  -22.4438 H           1 MOL       0.0495
     79 H28        14.1780   -5.3463  -22.0466 H           1 MOL       0.0581
     80 H29        16.3650   -6.1730  -21.0169 H           1 MOL       0.0513
     81 H30        17.0879   -6.0811  -22.6207 H           1 MOL       0.0513
     82 H31        16.7745   -8.4390  -23.8984 H           1 MOL       0.0289
     83 H32        16.8539  -10.5691  -24.9536 H           1 MOL       0.0616
     84 H33        16.7802  -12.6947  -26.0655 H           1 MOL       0.0615
     85 H34        15.0328  -14.2960  -25.5448 H           1 MOL       0.0610
     86 H35        13.3470  -13.7491  -23.8870 H           1 MOL       0.0615
     87 H36        13.3894  -11.6289  -22.7627 H           1 MOL       0.0616
@<TRIPOS>BOND
     1     1     2  ar
     2     6     1  ar
     3     2     3  ar
     4     4     3  ar
     5     5     4  ar
     6     6     5  ar
     7     7     6   1
     8     8     7   1
     9     9     8   1
    10     9    10   2
    11    11     9  am
    12    12    11   1
    13    12    13   1
    14    20    12   1
    15    13    14   1
    16    14    15  ar
    17    14    19  ar
    18    15    16  ar
    19    16    17  ar
    20    18    17  ar
    21    19    18  ar
    22    20    21  ar
    23    20    22  ar
    24    36    20   1
    25    23    24   1
    26    38    23  am
    27    24    25   1
    28    24    28   1
    29    25    26  ar
    30    25    27  ar
    31    28    29   1
    32    29    30  ar
    33    29    35  ar
    34    30    31  ar
    35    31    32  ar
    36    32    33   1
    37    34    32  ar
    38    35    34  ar
    39    37    36   1
    40    37    38   1
    41    37    40   1
    42    38    39   2
    43    40    41   1
    44    41    42   2
    45    41    43   1
    46    42    45   1
    47    43    44   1
    48    44    45   2
    49    45    46   1
    50    46    47  ar
    51    46    51  ar
    52    47    48  ar
    53    48    49  ar
    54    49    50  ar
    55    50    51  ar
    56     1    52   1
    57     2    53   1
    58     3    54   1
    59     4    55   1
    60     5    56   1
    61     7    57   1
    62     7    58   1
    63    11    59   1
    64    12    60   1
    65    13    61   1
    66    13    62   1
    67    15    63   1
    68    16    64   1
    69    17    65   1
    70    18    66   1
    71    19    67   1
    72    23    68   1
    73    24    69   1
    74    28    70   1
    75    28    71   1
    76    30    72   1
    77    31    73   1
    78    33    74   1
    79    34    75   1
    80    35    76   1
    81    36    77   1
    82    36    78   1
    83    37    79   1
    84    40    80   1
    85    40    81   1
    86    42    82   1
    87    47    83   1
    88    48    84   1
    89    49    85   1
    90    50    86   1
    91    51    87   1
@<TRIPOS>SUBSTRUCTURE
     1  MOL      1

