@<TRIPOS>MOLECULE
2xy9_ligand_053
    87    91
SMALL
GAST_HUCK
****
This file was generated by PARSER (from files_GN.cpp)

@<TRIPOS>ATOM
      1 CAQ        14.7667   -8.5190  -29.5575 C.ar        1 MOL      -0.0578
      2 CAK        15.1834   -7.4055  -30.3068 C.ar        1 MOL      -0.0685
      3 CAH        16.3155   -7.4964  -31.1343 C.ar        1 MOL      -0.0687
      4 CAL        17.0161   -8.7140  -31.2346 C.ar        1 MOL      -0.0685
      5 CAR        16.5849   -9.8380  -30.5040 C.ar        1 MOL      -0.0578
      6 CBP        15.4528   -9.7516  -29.6577 C.ar        1 MOL      -0.0130
      7 CBB        14.9837  -10.9081  -28.8580 C.3         1 MOL       0.1113
      8 OBJ        15.3048  -10.6372  -27.4892 O.3         1 MOL      -0.2506
      9 CBM        14.4891  -10.2296  -26.4889 C.2         1 MOL       0.3232
     10 OAB        13.1664  -10.0216  -26.6918 O.2         1 MOL      -0.3774
     11 NBI        15.0903   -9.9656  -25.3138 N.am        1 MOL      -0.2418
     12 CBX        14.4716   -9.3941  -24.1523 C.3         1 MOL       0.1176
     13 CBE        13.3649  -10.3165  -23.5073 C.3         1 MOL       0.0205
     14 CBQ        13.5261  -11.7928  -23.6967 C.ar        1 MOL      -0.0393
     15 CAS        12.4289  -12.5817  -24.1315 C.ar        1 MOL      -0.0602
     16 CAM        12.5756  -13.9602  -24.3647 C.ar        1 MOL      -0.0686
     17 CAI        13.8261  -14.5778  -24.1778 C.ar        1 MOL      -0.0687
     18 CAN        14.9179  -13.8195  -23.7256 C.ar        1 MOL      -0.0686
     19 CAT        14.7623  -12.4424  -23.4687 C.ar        1 MOL      -0.0602
     20 PBY        15.6774   -8.8524  -23.1066 P.3         1 MOL       0.0154
     21 OAG        17.0142   -8.9956  -23.6211 O.co2       1 MOL      -0.6174
     22 OAD        15.6753   -9.6266  -21.8920 O.co2       1 MOL      -0.6174
     23 N          13.7221   -5.2625  -24.3917 N.am        1 MOL      -0.2694
     24 CA         12.6815   -4.8611  -25.3044 C.3         1 MOL       0.1024
     25 C          12.0706   -5.9443  -26.1060 C.2         1 MOL       0.0619
     26 OXT        12.5604   -7.2000  -26.1611 O.co2       1 MOL      -0.5665
     27 O          10.8461   -5.7341  -26.6302 O.co2       1 MOL      -0.5665
     28 CB         13.0035   -3.5933  -26.1620 C.3         1 MOL       0.0108
     29 CG         14.1852   -3.6536  -27.0682 C.ar        1 MOL      -0.0499
     30 CD1        14.0559   -4.0573  -28.4195 C.ar        1 MOL      -0.0686
     31 CE1        15.1663   -4.0289  -29.2849 C.ar        1 MOL      -0.0398
     32 CZ         16.4328   -3.6485  -28.8061 C.ar        1 MOL       0.0805
     33 OH         17.4922   -3.6682  -29.6531 O.3         1 MOL      -0.3376
     34 CE2        16.5757   -3.2476  -27.4640 C.ar        1 MOL      -0.0398
     35 CD2        15.4549   -3.2259  -26.6123 C.ar        1 MOL      -0.0686
     36 CBF        15.4679   -7.2689  -22.6131 C.3         1 MOL       0.0375
     37 CBV        15.8611   -6.0839  -23.5703 C.3         1 MOL       0.0788
     38 CBN        14.8896   -5.8473  -24.6448 C.2         1 MOL       0.1848
     39 OAC        15.1865   -6.1759  -25.7858 O.2         1 MOL      -0.3964
     40 CBC        16.2059   -4.7548  -22.7960 C.3         1 MOL       0.0422
     41 CBS        15.2451   -4.3010  -21.7629 C.2         1 MOL       0.1411
     42 CBA        14.9555   -2.9981  -21.3721 C.2         1 MOL      -0.0269
     43 OBK        14.5370   -5.1116  -20.9538 O.3         1 MOL      -0.1670
     44 NBG        13.8325   -4.4062  -20.1198 N.2         1 MOL      -0.1519
     45 CBU        14.0507   -3.0986  -20.3175 C.2         1 MOL       0.0430
     46 CBT        13.4434   -2.0819  -19.5291 C.ar        1 MOL      -0.0150
     47 CAU        13.9055   -0.7410  -19.5543 C.ar        1 MOL      -0.0551
     48 CAO        13.3164    0.2406  -18.7362 C.ar        1 MOL      -0.0621
     49 CAJ        12.2470   -0.0957  -17.8837 C.ar        1 MOL      -0.0626
     50 CAP        11.7730   -1.4200  -17.8437 C.ar        1 MOL      -0.0621
     51 CAV        12.3681   -2.4009  -18.6548 C.ar        1 MOL      -0.0551
     52 H1         13.9463   -8.4301  -28.9528 H           1 MOL       0.0557
     53 H2         14.6490   -6.5390  -30.2588 H           1 MOL       0.0599
     54 H3         16.6236   -6.6825  -31.6715 H           1 MOL       0.0559
     55 H4         17.8361   -8.7832  -31.8432 H           1 MOL       0.0599
     56 H5         17.1056  -10.7166  -30.5865 H           1 MOL       0.0557
     57 H6         15.4852  -11.8361  -29.1485 H           1 MOL       0.0776
     58 H7         13.9080  -11.0513  -29.0076 H           1 MOL       0.0776
     59 H8         16.0426  -10.1298  -25.2826 H           1 MOL       0.1888
     60 H9         13.9648   -8.4938  -24.4822 H           1 MOL       0.0787
     61 H10        12.4076  -10.0098  -23.9426 H           1 MOL       0.0465
     62 H11        13.2644  -10.1269  -22.4383 H           1 MOL       0.0465
     63 H12        11.5112  -12.1547  -24.2872 H           1 MOL       0.0557
     64 H13        11.7719  -14.5147  -24.6749 H           1 MOL       0.0599
     65 H14        13.9378  -15.5773  -24.3594 H           1 MOL       0.0559
     66 H15        15.8286  -14.2658  -23.5865 H           1 MOL       0.0599
     67 H16        15.5764  -11.9185  -23.1458 H           1 MOL       0.0557
     68 H17        13.5551   -5.0538  -23.4597 H           1 MOL       0.1876
     69 H18        11.8812   -4.5401  -24.6335 H           1 MOL       0.0747
     70 H19        13.1443   -2.7600  -25.4746 H           1 MOL       0.0446
     71 H20        12.1182   -3.3291  -26.7529 H           1 MOL       0.0446
     72 H21        13.1470   -4.3488  -28.7886 H           1 MOL       0.0530
     73 H22        15.0499   -4.2745  -30.2718 H           1 MOL       0.0525
     74 H23        18.1243   -3.0017  -29.3104 H           1 MOL       0.2458
     75 H24        17.4897   -2.9541  -27.1085 H           1 MOL       0.0525
     76 H25        15.5730   -2.8946  -25.6514 H           1 MOL       0.0530
     77 H26        16.0684   -7.1660  -21.7054 H           1 MOL       0.0495
     78 H27        14.4182   -7.1728  -22.3240 H           1 MOL       0.0495
     79 H28        16.8090   -6.3716  -24.0441 H           1 MOL       0.0581
     80 H29        16.3708   -3.9489  -23.5142 H           1 MOL       0.0513
     81 H30        17.1579   -4.9010  -22.2908 H           1 MOL       0.0513
     82 H31        15.3366   -2.1397  -21.7763 H           1 MOL       0.0289
     83 H32        14.6903   -0.4701  -20.1516 H           1 MOL       0.0616
     84 H33        13.6693    1.2018  -18.7566 H           1 MOL       0.0615
     85 H34        11.8193    0.6170  -17.2902 H           1 MOL       0.0610
     86 H35        10.9996   -1.6715  -17.2204 H           1 MOL       0.0615
     87 H36        12.0027   -3.3568  -18.5973 H           1 MOL       0.0616
@<TRIPOS>BOND
     1     1     2  ar
     2     6     1  ar
     3     2     3  ar
     4     4     3  ar
     5     5     4  ar
     6     6     5  ar
     7     7     6   1
     8     8     7   1
     9     9     8   1
    10     9    10   2
    11    11     9  am
    12    12    11   1
    13    12    13   1
    14    20    12   1
    15    13    14   1
    16    14    15  ar
    17    14    19  ar
    18    15    16  ar
    19    16    17  ar
    20    18    17  ar
    21    19    18  ar
    22    20    21  ar
    23    20    22  ar
    24    36    20   1
    25    23    24   1
    26    38    23  am
    27    24    25   1
    28    24    28   1
    29    25    26  ar
    30    25    27  ar
    31    28    29   1
    32    29    30  ar
    33    29    35  ar
    34    30    31  ar
    35    31    32  ar
    36    32    33   1
    37    34    32  ar
    38    35    34  ar
    39    37    36   1
    40    37    38   1
    41    37    40   1
    42    38    39   2
    43    40    41   1
    44    41    42   2
    45    41    43   1
    46    42    45   1
    47    43    44   1
    48    44    45   2
    49    45    46   1
    50    46    47  ar
    51    46    51  ar
    52    47    48  ar
    53    48    49  ar
    54    49    50  ar
    55    50    51  ar
    56     1    52   1
    57     2    53   1
    58     3    54   1
    59     4    55   1
    60     5    56   1
    61     7    57   1
    62     7    58   1
    63    11    59   1
    64    12    60   1
    65    13    61   1
    66    13    62   1
    67    15    63   1
    68    16    64   1
    69    17    65   1
    70    18    66   1
    71    19    67   1
    72    23    68   1
    73    24    69   1
    74    28    70   1
    75    28    71   1
    76    30    72   1
    77    31    73   1
    78    33    74   1
    79    34    75   1
    80    35    76   1
    81    36    77   1
    82    36    78   1
    83    37    79   1
    84    40    80   1
    85    40    81   1
    86    42    82   1
    87    47    83   1
    88    48    84   1
    89    49    85   1
    90    50    86   1
    91    51    87   1
@<TRIPOS>SUBSTRUCTURE
     1  MOL      1

