@<TRIPOS>MOLECULE
2xy9_ligand_040
    87    91
SMALL
GAST_HUCK
****
This file was generated by PARSER (from files_GN.cpp)

@<TRIPOS>ATOM
      1 CAQ        16.2663  -15.4573  -25.8225 C.ar        1 MOL      -0.0578
      2 CAK        17.6191  -15.8040  -25.9683 C.ar        1 MOL      -0.0685
      3 CAH        18.3557  -16.2350  -24.8530 C.ar        1 MOL      -0.0687
      4 CAL        17.7474  -16.2894  -23.5858 C.ar        1 MOL      -0.0685
      5 CAR        16.3970  -15.9243  -23.4356 C.ar        1 MOL      -0.0578
      6 CBP        15.6427  -15.5101  -24.5544 C.ar        1 MOL      -0.0130
      7 CBB        14.2344  -15.0772  -24.3878 C.3         1 MOL       0.1113
      8 OBJ        14.0920  -13.7279  -23.9254 O.3         1 MOL      -0.2506
      9 CBM        14.7253  -12.6255  -24.4062 C.2         1 MOL       0.3232
     10 OAB        15.7218  -12.7288  -25.3155 O.2         1 MOL      -0.3774
     11 NBI        14.2406  -11.4196  -24.0435 N.am        1 MOL      -0.2418
     12 CBX        14.6590  -10.1469  -24.5778 C.3         1 MOL       0.1176
     13 CBE        13.9027   -9.7409  -25.8981 C.3         1 MOL       0.0205
     14 CBQ        13.6350  -10.8472  -26.8575 C.ar        1 MOL      -0.0393
     15 CAS        12.5144  -11.6886  -26.6527 C.ar        1 MOL      -0.0602
     16 CAM        12.2709  -12.7805  -27.5030 C.ar        1 MOL      -0.0686
     17 CAI        13.1396  -13.0509  -28.5732 C.ar        1 MOL      -0.0687
     18 CAN        14.2493  -12.2152  -28.8000 C.ar        1 MOL      -0.0686
     19 CAT        14.4934  -11.1200  -27.9483 C.ar        1 MOL      -0.0602
     20 PBY        14.5665   -8.9771  -23.3806 P.3         1 MOL       0.0154
     21 OAG        14.2216   -9.5981  -22.1019 O.co2       1 MOL      -0.6174
     22 OAD        13.3786   -8.1790  -23.4643 O.co2       1 MOL      -0.6174
     23 N          14.0228   -5.7412  -24.3312 N.am        1 MOL      -0.2694
     24 CA         12.9081   -5.1496  -25.0160 C.3         1 MOL       0.1024
     25 C          12.2148   -6.0625  -25.9530 C.2         1 MOL       0.0619
     26 OXT        10.9851   -5.7546  -26.4165 O.co2       1 MOL      -0.5665
     27 O          12.7549   -7.2172  -26.3969 O.co2       1 MOL      -0.5665
     28 CB         13.2074   -3.7217  -25.5671 C.3         1 MOL       0.0108
     29 CG         14.2674   -3.5960  -26.6068 C.ar        1 MOL      -0.0499
     30 CD1        15.6083   -3.2863  -26.2570 C.ar        1 MOL      -0.0686
     31 CE1        16.6110   -3.2052  -27.2418 C.ar        1 MOL      -0.0398
     32 CZ         16.2899   -3.4049  -28.5981 C.ar        1 MOL       0.0805
     33 OH         17.2457   -3.3752  -29.5633 O.3         1 MOL      -0.3376
     34 CE2        14.9531   -3.6580  -28.9647 C.ar        1 MOL      -0.0398
     35 CD2        13.9548   -3.7529  -27.9779 C.ar        1 MOL      -0.0686
     36 CBF        15.9054   -8.0244  -23.0752 C.3         1 MOL       0.0375
     37 CBV        16.1998   -6.7147  -23.9110 C.3         1 MOL       0.0788
     38 CBN        15.1627   -6.2142  -24.8120 C.2         1 MOL       0.1848
     39 OAC        15.3727   -6.2219  -26.0254 O.2         1 MOL      -0.3964
     40 CBC        16.7208   -5.5435  -23.0003 C.3         1 MOL       0.0422
     41 CBS        15.7462   -4.9667  -22.0388 C.2         1 MOL       0.1411
     42 CBA        15.4421   -3.6334  -21.8014 C.2         1 MOL      -0.0269
     43 OBK        14.9554   -5.6889  -21.2126 O.3         1 MOL      -0.1670
     44 NBG        14.1975   -4.8975  -20.5074 N.2         1 MOL      -0.1519
     45 CBU        14.4556   -3.6127  -20.8166 C.2         1 MOL       0.0430
     46 CBT        13.8161   -2.5098  -20.1928 C.ar        1 MOL      -0.0150
     47 CAU        14.4181   -1.2287  -20.1664 C.ar        1 MOL      -0.0551
     48 CAO        13.7998   -0.1571  -19.5003 C.ar        1 MOL      -0.0621
     49 CAJ        12.5599   -0.3428  -18.8617 C.ar        1 MOL      -0.0626
     50 CAP        11.9456   -1.6053  -18.8829 C.ar        1 MOL      -0.0621
     51 CAV        12.5701   -2.6806  -19.5385 C.ar        1 MOL      -0.0551
     52 H1         15.7527  -15.1338  -26.6454 H           1 MOL       0.0557
     53 H2         18.0595  -15.7386  -26.8874 H           1 MOL       0.0599
     54 H3         19.3394  -16.4897  -24.9623 H           1 MOL       0.0559
     55 H4         18.2885  -16.5819  -22.7679 H           1 MOL       0.0599
     56 H5         15.9702  -15.9601  -22.5070 H           1 MOL       0.0557
     57 H6         13.7301  -15.7497  -23.6910 H           1 MOL       0.0776
     58 H7         13.6974  -15.1364  -25.3334 H           1 MOL       0.0776
     59 H8         13.4918  -11.4244  -23.4242 H           1 MOL       0.1888
     60 H9         15.7224  -10.2239  -24.8289 H           1 MOL       0.0787
     61 H10        14.4898   -8.9668  -26.4021 H           1 MOL       0.0465
     62 H11        12.9370   -9.2744  -25.6748 H           1 MOL       0.0465
     63 H12        11.8833  -11.5250  -25.8663 H           1 MOL       0.0557
     64 H13        11.4639  -13.3864  -27.3345 H           1 MOL       0.0599
     65 H14        12.9674  -13.8540  -29.1815 H           1 MOL       0.0559
     66 H15        14.8790  -12.4111  -29.5798 H           1 MOL       0.0599
     67 H16        15.3177  -10.5365  -28.1189 H           1 MOL       0.0557
     68 H17        13.8914   -5.8582  -23.3728 H           1 MOL       0.1876
     69 H18        12.1847   -4.9941  -24.2094 H           1 MOL       0.0747
     70 H19        13.4651   -3.0975  -24.7077 H           1 MOL       0.0446
     71 H20        12.2854   -3.3015  -25.9733 H           1 MOL       0.0446
     72 H21        15.8690   -3.1470  -25.2793 H           1 MOL       0.0530
     73 H22        17.5735   -2.9958  -26.9727 H           1 MOL       0.0525
     74 H23        17.8668   -2.6553  -29.3260 H           1 MOL       0.2458
     75 H24        14.7093   -3.7774  -29.9517 H           1 MOL       0.0525
     76 H25        12.9936   -3.9435  -28.2723 H           1 MOL       0.0530
     77 H26        16.7823   -8.6730  -23.1431 H           1 MOL       0.0495
     78 H27        15.8388   -7.7693  -22.0212 H           1 MOL       0.0495
     79 H28        17.0597   -6.9737  -24.5424 H           1 MOL       0.0581
     80 H29        17.1028   -4.7375  -23.6349 H           1 MOL       0.0513
     81 H30        17.5648   -5.9208  -22.4171 H           1 MOL       0.0513
     82 H31        15.8635   -2.8278  -22.2660 H           1 MOL       0.0289
     83 H32        15.3277   -1.0690  -20.5997 H           1 MOL       0.0616
     84 H33        14.2557    0.7581  -19.4671 H           1 MOL       0.0615
     85 H34        12.1098    0.4409  -18.3782 H           1 MOL       0.0610
     86 H35        11.0484   -1.7427  -18.4117 H           1 MOL       0.0615
     87 H36        12.1012   -3.5898  -19.5328 H           1 MOL       0.0616
@<TRIPOS>BOND
     1     1     2  ar
     2     6     1  ar
     3     2     3  ar
     4     4     3  ar
     5     5     4  ar
     6     6     5  ar
     7     7     6   1
     8     8     7   1
     9     9     8   1
    10     9    10   2
    11    11     9  am
    12    12    11   1
    13    12    13   1
    14    20    12   1
    15    13    14   1
    16    14    15  ar
    17    14    19  ar
    18    15    16  ar
    19    16    17  ar
    20    18    17  ar
    21    19    18  ar
    22    20    21  ar
    23    20    22  ar
    24    36    20   1
    25    23    24   1
    26    38    23  am
    27    24    25   1
    28    24    28   1
    29    25    26  ar
    30    25    27  ar
    31    28    29   1
    32    29    30  ar
    33    29    35  ar
    34    30    31  ar
    35    31    32  ar
    36    32    33   1
    37    34    32  ar
    38    35    34  ar
    39    37    36   1
    40    37    38   1
    41    37    40   1
    42    38    39   2
    43    40    41   1
    44    41    42   2
    45    41    43   1
    46    42    45   1
    47    43    44   1
    48    44    45   2
    49    45    46   1
    50    46    47  ar
    51    46    51  ar
    52    47    48  ar
    53    48    49  ar
    54    49    50  ar
    55    50    51  ar
    56     1    52   1
    57     2    53   1
    58     3    54   1
    59     4    55   1
    60     5    56   1
    61     7    57   1
    62     7    58   1
    63    11    59   1
    64    12    60   1
    65    13    61   1
    66    13    62   1
    67    15    63   1
    68    16    64   1
    69    17    65   1
    70    18    66   1
    71    19    67   1
    72    23    68   1
    73    24    69   1
    74    28    70   1
    75    28    71   1
    76    30    72   1
    77    31    73   1
    78    33    74   1
    79    34    75   1
    80    35    76   1
    81    36    77   1
    82    36    78   1
    83    37    79   1
    84    40    80   1
    85    40    81   1
    86    42    82   1
    87    47    83   1
    88    48    84   1
    89    49    85   1
    90    50    86   1
    91    51    87   1
@<TRIPOS>SUBSTRUCTURE
     1  MOL      1

