@<TRIPOS>MOLECULE
2xy9_ligand_012
    87    91
SMALL
GAST_HUCK
****
This file was generated by PARSER (from files_GN.cpp)

@<TRIPOS>ATOM
      1 CAQ        15.0648   -8.1510  -29.7046 C.ar        1 MOL      -0.0578
      2 CAK        16.1062   -7.7738  -30.5725 C.ar        1 MOL      -0.0685
      3 CAH        16.9474   -8.7508  -31.1326 C.ar        1 MOL      -0.0687
      4 CAL        16.7393  -10.1124  -30.8359 C.ar        1 MOL      -0.0685
      5 CAR        15.6846  -10.4908  -29.9786 C.ar        1 MOL      -0.0578
      6 CBP        14.8372   -9.5130  -29.3994 C.ar        1 MOL      -0.0130
      7 CBB        13.7103   -9.8989  -28.5118 C.3         1 MOL       0.1113
      8 OBJ        13.8011   -9.4597  -27.1450 O.3         1 MOL      -0.2506
      9 CBM        14.8471   -9.1621  -26.3333 C.2         1 MOL       0.3232
     10 OAB        16.1323   -9.2267  -26.7603 O.2         1 MOL      -0.3774
     11 NBI        14.5304   -8.9349  -25.0342 N.am        1 MOL      -0.2418
     12 CBX        15.4265   -8.9084  -23.9056 C.3         1 MOL       0.1176
     13 CBE        16.4081  -10.1500  -23.9206 C.3         1 MOL       0.0205
     14 CBQ        16.7096  -10.9374  -22.6835 C.ar        1 MOL      -0.0393
     15 CAS        17.8980  -11.7150  -22.6371 C.ar        1 MOL      -0.0602
     16 CAM        18.1173  -12.6505  -21.6106 C.ar        1 MOL      -0.0686
     17 CAI        17.1596  -12.8190  -20.5905 C.ar        1 MOL      -0.0687
     18 CAN        15.9812  -12.0566  -20.6148 C.ar        1 MOL      -0.0686
     19 CAT        15.7349  -11.1584  -21.6712 C.ar        1 MOL      -0.0602
     20 PBY        16.0671   -7.3677  -23.6657 P.3         1 MOL       0.0154
     21 OAG        15.8458   -6.5657  -24.8464 O.co2       1 MOL      -0.6174
     22 OAD        17.5145   -7.3838  -23.5484 O.co2       1 MOL      -0.6174
     23 N          13.7314   -5.1306  -24.1865 N.am        1 MOL      -0.2694
     24 CA         12.8642   -4.6387  -25.2380 C.3         1 MOL       0.1024
     25 C          12.3319   -5.8033  -25.9743 C.2         1 MOL       0.0619
     26 OXT        13.1239   -6.8531  -26.3007 O.co2       1 MOL      -0.5665
     27 O          11.0565   -5.8131  -26.4304 O.co2       1 MOL      -0.5665
     28 CB         13.4992   -3.6106  -26.2344 C.3         1 MOL       0.0108
     29 CG         14.8135   -3.9401  -26.8660 C.ar        1 MOL      -0.0499
     30 CD1        15.9949   -3.9875  -26.0848 C.ar        1 MOL      -0.0686
     31 CE1        17.2543   -4.1293  -26.6977 C.ar        1 MOL      -0.0398
     32 CZ         17.3609   -4.2311  -28.0991 C.ar        1 MOL       0.0805
     33 OH         18.5811   -4.3141  -28.6913 O.3         1 MOL      -0.3376
     34 CE2        16.1882   -4.2229  -28.8816 C.ar        1 MOL      -0.0398
     35 CD2        14.9241   -4.0775  -28.2738 C.ar        1 MOL      -0.0686
     36 CBF        15.4184   -6.5868  -22.3264 C.3         1 MOL       0.0375
     37 CBV        15.3359   -5.0081  -22.2960 C.3         1 MOL       0.0788
     38 CBN        14.4127   -4.4215  -23.2847 C.2         1 MOL       0.1848
     39 OAC        14.3649   -3.2021  -23.3566 O.2         1 MOL      -0.3964
     40 CBC        15.0340   -4.5337  -20.8235 C.3         1 MOL       0.0422
     41 CBS        15.1642   -3.0905  -20.4961 C.2         1 MOL       0.1411
     42 CBA        16.0343   -2.5072  -19.5830 C.2         1 MOL      -0.0269
     43 OBK        14.3635   -2.0942  -20.9444 O.3         1 MOL      -0.1670
     44 NBG        14.7052   -0.9666  -20.3833 N.2         1 MOL      -0.1519
     45 CBU        15.7313   -1.1487  -19.5292 C.2         1 MOL       0.0430
     46 CBT        16.3303   -0.1153  -18.7493 C.ar        1 MOL      -0.0150
     47 CAU        17.3806   -0.3752  -17.8300 C.ar        1 MOL      -0.0551
     48 CAO        17.9764    0.6598  -17.0851 C.ar        1 MOL      -0.0621
     49 CAJ        17.5428    1.9875  -17.2497 C.ar        1 MOL      -0.0626
     50 CAP        16.5013    2.2714  -18.1503 C.ar        1 MOL      -0.0621
     51 CAV        15.9017    1.2324  -18.8856 C.ar        1 MOL      -0.0551
     52 H1         14.4544   -7.4267  -29.3128 H           1 MOL       0.0557
     53 H2         16.2481   -6.7876  -30.8010 H           1 MOL       0.0599
     54 H3         17.7047   -8.4765  -31.7605 H           1 MOL       0.0559
     55 H4         17.3517  -10.8240  -31.2401 H           1 MOL       0.0599
     56 H5         15.5428  -11.4853  -29.7803 H           1 MOL       0.0557
     57 H6         13.5854  -10.9866  -28.4889 H           1 MOL       0.0776
     58 H7         12.7857   -9.4860  -28.9224 H           1 MOL       0.0776
     59 H8         13.5863   -8.9255  -24.8243 H           1 MOL       0.1888
     60 H9         14.7477   -9.0653  -23.0696 H           1 MOL       0.0787
     61 H10        17.3513   -9.8246  -24.3784 H           1 MOL       0.0465
     62 H11        15.9776  -10.8981  -24.6059 H           1 MOL       0.0465
     63 H12        18.5979  -11.6306  -23.3803 H           1 MOL       0.0557
     64 H13        18.9453  -13.2351  -21.6170 H           1 MOL       0.0599
     65 H14        17.3136  -13.5009  -19.8514 H           1 MOL       0.0559
     66 H15        15.2737  -12.1800  -19.8883 H           1 MOL       0.0599
     67 H16        14.8298  -10.6836  -21.6998 H           1 MOL       0.0557
     68 H17        13.7802   -6.0978  -24.1091 H           1 MOL       0.1876
     69 H18        12.0172   -4.1289  -24.7573 H           1 MOL       0.0747
     70 H19        13.6206   -2.6577  -25.7198 H           1 MOL       0.0446
     71 H20        12.7549   -3.4027  -27.0152 H           1 MOL       0.0446
     72 H21        15.9545   -3.8649  -25.0662 H           1 MOL       0.0530
     73 H22        18.0987   -4.1485  -26.1165 H           1 MOL       0.0525
     74 H23        19.0980   -3.5735  -28.3016 H           1 MOL       0.2458
     75 H24        16.2530   -4.2990  -29.8977 H           1 MOL       0.0525
     76 H25        14.0869   -4.0455  -28.8676 H           1 MOL       0.0530
     77 H26        16.0148   -6.9424  -21.4821 H           1 MOL       0.0495
     78 H27        14.4093   -6.9697  -22.1617 H           1 MOL       0.0495
     79 H28        16.3394   -4.6413  -22.5378 H           1 MOL       0.0581
     80 H29        15.7220   -5.0553  -20.1509 H           1 MOL       0.0513
     81 H30        14.0238   -4.8471  -20.5491 H           1 MOL       0.0513
     82 H31        16.7467   -3.0016  -19.0415 H           1 MOL       0.0289
     83 H32        17.7366   -1.3222  -17.6980 H           1 MOL       0.0616
     84 H33        18.7354    0.4500  -16.4311 H           1 MOL       0.0615
     85 H34        17.9795    2.7421  -16.7139 H           1 MOL       0.0610
     86 H35        16.1829    3.2372  -18.2700 H           1 MOL       0.0615
     87 H36        15.1449    1.4774  -19.5281 H           1 MOL       0.0616
@<TRIPOS>BOND
     1     1     2  ar
     2     6     1  ar
     3     2     3  ar
     4     4     3  ar
     5     5     4  ar
     6     6     5  ar
     7     7     6   1
     8     8     7   1
     9     9     8   1
    10     9    10   2
    11    11     9  am
    12    12    11   1
    13    12    13   1
    14    20    12   1
    15    13    14   1
    16    14    15  ar
    17    14    19  ar
    18    15    16  ar
    19    16    17  ar
    20    18    17  ar
    21    19    18  ar
    22    20    21  ar
    23    20    22  ar
    24    36    20   1
    25    23    24   1
    26    38    23  am
    27    24    25   1
    28    24    28   1
    29    25    26  ar
    30    25    27  ar
    31    28    29   1
    32    29    30  ar
    33    29    35  ar
    34    30    31  ar
    35    31    32  ar
    36    32    33   1
    37    34    32  ar
    38    35    34  ar
    39    37    36   1
    40    37    38   1
    41    37    40   1
    42    38    39   2
    43    40    41   1
    44    41    42   2
    45    41    43   1
    46    42    45   1
    47    43    44   1
    48    44    45   2
    49    45    46   1
    50    46    47  ar
    51    46    51  ar
    52    47    48  ar
    53    48    49  ar
    54    49    50  ar
    55    50    51  ar
    56     1    52   1
    57     2    53   1
    58     3    54   1
    59     4    55   1
    60     5    56   1
    61     7    57   1
    62     7    58   1
    63    11    59   1
    64    12    60   1
    65    13    61   1
    66    13    62   1
    67    15    63   1
    68    16    64   1
    69    17    65   1
    70    18    66   1
    71    19    67   1
    72    23    68   1
    73    24    69   1
    74    28    70   1
    75    28    71   1
    76    30    72   1
    77    31    73   1
    78    33    74   1
    79    34    75   1
    80    35    76   1
    81    36    77   1
    82    36    78   1
    83    37    79   1
    84    40    80   1
    85    40    81   1
    86    42    82   1
    87    47    83   1
    88    48    84   1
    89    49    85   1
    90    50    86   1
    91    51    87   1
@<TRIPOS>SUBSTRUCTURE
     1  MOL      1

