@<TRIPOS>MOLECULE
2xy9_ligand_059
    87    91
SMALL
GAST_HUCK
****
This file was generated by PARSER (from files_GN.cpp)

@<TRIPOS>ATOM
      1 CAQ        19.5171   -4.1694  -29.3353 C.ar        1 MOL      -0.0578
      2 CAK        20.9220   -4.2683  -29.4049 C.ar        1 MOL      -0.0685
      3 CAH        21.6524   -4.7257  -28.2922 C.ar        1 MOL      -0.0687
      4 CAL        20.9791   -5.1096  -27.1242 C.ar        1 MOL      -0.0685
      5 CAR        19.5765   -5.0149  -27.0574 C.ar        1 MOL      -0.0578
      6 CBP        18.8261   -4.5347  -28.1573 C.ar        1 MOL      -0.0130
      7 CBB        17.3521   -4.4270  -28.0463 C.3         1 MOL       0.1113
      8 OBJ        16.8520   -5.6106  -27.4113 O.3         1 MOL      -0.2506
      9 CBM        16.4618   -5.7679  -26.1137 C.2         1 MOL       0.3232
     10 OAB        16.4471   -4.7222  -25.2428 O.2         1 MOL      -0.3774
     11 NBI        16.1553   -7.0299  -25.7441 N.am        1 MOL      -0.2418
     12 CBX        15.6823   -7.5233  -24.4733 C.3         1 MOL       0.1176
     13 CBE        15.7423   -9.0907  -24.5964 C.3         1 MOL       0.0205
     14 CBQ        15.4977   -9.9283  -23.3853 C.ar        1 MOL      -0.0393
     15 CAS        16.5775  -10.5867  -22.7404 C.ar        1 MOL      -0.0602
     16 CAM        16.3725  -11.3325  -21.5655 C.ar        1 MOL      -0.0686
     17 CAI        15.0820  -11.4390  -21.0204 C.ar        1 MOL      -0.0687
     18 CAN        13.9900  -10.8290  -21.6698 C.ar        1 MOL      -0.0686
     19 CAT        14.1972  -10.0842  -22.8484 C.ar        1 MOL      -0.0602
     20 PBY        16.5090   -6.8981  -23.1354 P.3         1 MOL       0.0154
     21 OAG        17.5385   -5.9448  -23.4955 O.co2       1 MOL      -0.6174
     22 OAD        17.3088   -7.9286  -22.5240 O.co2       1 MOL      -0.6174
     23 N          13.5173   -5.0953  -23.8624 N.am        1 MOL      -0.2694
     24 CA         12.5832   -4.6625  -24.8833 C.3         1 MOL       0.1024
     25 C          11.7829   -5.8127  -25.3780 C.2         1 MOL       0.0619
     26 OXT        11.9618   -7.0755  -24.9191 O.co2       1 MOL      -0.5665
     27 O          10.8794   -5.6468  -26.3634 O.co2       1 MOL      -0.5665
     28 CB         13.1011   -3.7598  -26.0548 C.3         1 MOL       0.0108
     29 CG         13.5796   -4.2987  -27.3644 C.ar        1 MOL      -0.0499
     30 CD1        13.8839   -5.6610  -27.6075 C.ar        1 MOL      -0.0686
     31 CE1        14.2996   -6.0882  -28.8826 C.ar        1 MOL      -0.0398
     32 CZ         14.4529   -5.1634  -29.9286 C.ar        1 MOL       0.0805
     33 OH         14.8617   -5.5949  -31.1459 O.3         1 MOL      -0.3376
     34 CE2        14.1905   -3.7982  -29.6988 C.ar        1 MOL      -0.0398
     35 CD2        13.7659   -3.3708  -28.4260 C.ar        1 MOL      -0.0686
     36 CBF        15.5322   -6.2935  -21.9081 C.3         1 MOL       0.0375
     37 CBV        15.0931   -4.7949  -22.0208 C.3         1 MOL       0.0788
     38 CBN        14.5099   -4.3975  -23.3124 C.2         1 MOL       0.1848
     39 OAC        14.8474   -3.3216  -23.7953 O.2         1 MOL      -0.3964
     40 CBC        14.1426   -4.3514  -20.8491 C.3         1 MOL       0.0422
     41 CBS        14.4722   -3.0006  -20.3460 C.2         1 MOL       0.1411
     42 CBA        14.9874   -2.6826  -19.0992 C.2         1 MOL      -0.0269
     43 OBK        14.4119   -1.8503  -21.0517 O.3         1 MOL      -0.1670
     44 NBG        14.8691   -0.8651  -20.3257 N.2         1 MOL      -0.1519
     45 CBU        15.2414   -1.3156  -19.1135 C.2         1 MOL       0.0430
     46 CBT        15.7983   -0.5197  -18.0799 C.ar        1 MOL      -0.0150
     47 CAU        15.7167   -0.9154  -16.7206 C.ar        1 MOL      -0.0551
     48 CAO        16.2401   -0.1008  -15.7028 C.ar        1 MOL      -0.0621
     49 CAJ        16.8810    1.1106  -16.0226 C.ar        1 MOL      -0.0626
     50 CAP        16.9792    1.5124  -17.3671 C.ar        1 MOL      -0.0621
     51 CAV        16.4379    0.7097  -18.3845 C.ar        1 MOL      -0.0551
     52 H1         19.0034   -3.8369  -30.1575 H           1 MOL       0.0557
     53 H2         21.4154   -4.0282  -30.2691 H           1 MOL       0.0599
     54 H3         22.6663   -4.7970  -28.3405 H           1 MOL       0.0559
     55 H4         21.5119   -5.4654  -26.3274 H           1 MOL       0.0599
     56 H5         19.1023   -5.3128  -26.2065 H           1 MOL       0.0557
     57 H6         16.8766   -4.3414  -29.0319 H           1 MOL       0.0776
     58 H7         17.1144   -3.5199  -27.4786 H           1 MOL       0.0776
     59 H8         16.2315   -7.6932  -26.4521 H           1 MOL       0.1888
     60 H9         14.6317   -7.2381  -24.3709 H           1 MOL       0.0787
     61 H10        16.7296   -9.3412  -24.9985 H           1 MOL       0.0465
     62 H11        15.0195   -9.4061  -25.3565 H           1 MOL       0.0465
     63 H12        17.5250  -10.5213  -23.1130 H           1 MOL       0.0557
     64 H13        17.1607  -11.7936  -21.1072 H           1 MOL       0.0599
     65 H14        14.9422  -11.9400  -20.1426 H           1 MOL       0.0559
     66 H15        13.0587  -10.9026  -21.2732 H           1 MOL       0.0599
     67 H16        13.3913   -9.6450  -23.3062 H           1 MOL       0.0557
     68 H17        13.2799   -5.9184  -23.4136 H           1 MOL       0.1876
     69 H18        11.8714   -4.0362  -24.3332 H           1 MOL       0.0747
     70 H19        13.9072   -3.1233  -25.6626 H           1 MOL       0.0446
     71 H20        12.2703   -3.0771  -26.3019 H           1 MOL       0.0446
     72 H21        13.8102   -6.3527  -26.8647 H           1 MOL       0.0530
     73 H22        14.4956   -7.0758  -29.0471 H           1 MOL       0.0525
     74 H23        15.6792   -5.0821  -31.3479 H           1 MOL       0.2458
     75 H24        14.2970   -3.1191  -30.4522 H           1 MOL       0.0525
     76 H25        13.5648   -2.3747  -28.2844 H           1 MOL       0.0530
     77 H26        16.0960   -6.3838  -20.9745 H           1 MOL       0.0495
     78 H27        14.6580   -6.9343  -21.7981 H           1 MOL       0.0495
     79 H28        16.0221   -4.2258  -21.8884 H           1 MOL       0.0581
     80 H29        14.2418   -5.0462  -20.0184 H           1 MOL       0.0513
     81 H30        13.0945   -4.3702  -21.1584 H           1 MOL       0.0513
     82 H31        15.1864   -3.3423  -18.3432 H           1 MOL       0.0289
     83 H32        15.2540   -1.7860  -16.4564 H           1 MOL       0.0616
     84 H33        16.1527   -0.3865  -14.7260 H           1 MOL       0.0615
     85 H34        17.2690    1.6963  -15.2819 H           1 MOL       0.0610
     86 H35        17.4429    2.3945  -17.6022 H           1 MOL       0.0615
     87 H36        16.5167    1.0282  -19.3516 H           1 MOL       0.0616
@<TRIPOS>BOND
     1     1     2  ar
     2     6     1  ar
     3     2     3  ar
     4     4     3  ar
     5     5     4  ar
     6     6     5  ar
     7     7     6   1
     8     8     7   1
     9     9     8   1
    10     9    10   2
    11    11     9  am
    12    12    11   1
    13    12    13   1
    14    20    12   1
    15    13    14   1
    16    14    15  ar
    17    14    19  ar
    18    15    16  ar
    19    16    17  ar
    20    18    17  ar
    21    19    18  ar
    22    20    21  ar
    23    20    22  ar
    24    36    20   1
    25    23    24   1
    26    38    23  am
    27    24    25   1
    28    24    28   1
    29    25    26  ar
    30    25    27  ar
    31    28    29   1
    32    29    30  ar
    33    29    35  ar
    34    30    31  ar
    35    31    32  ar
    36    32    33   1
    37    34    32  ar
    38    35    34  ar
    39    37    36   1
    40    37    38   1
    41    37    40   1
    42    38    39   2
    43    40    41   1
    44    41    42   2
    45    41    43   1
    46    42    45   1
    47    43    44   1
    48    44    45   2
    49    45    46   1
    50    46    47  ar
    51    46    51  ar
    52    47    48  ar
    53    48    49  ar
    54    49    50  ar
    55    50    51  ar
    56     1    52   1
    57     2    53   1
    58     3    54   1
    59     4    55   1
    60     5    56   1
    61     7    57   1
    62     7    58   1
    63    11    59   1
    64    12    60   1
    65    13    61   1
    66    13    62   1
    67    15    63   1
    68    16    64   1
    69    17    65   1
    70    18    66   1
    71    19    67   1
    72    23    68   1
    73    24    69   1
    74    28    70   1
    75    28    71   1
    76    30    72   1
    77    31    73   1
    78    33    74   1
    79    34    75   1
    80    35    76   1
    81    36    77   1
    82    36    78   1
    83    37    79   1
    84    40    80   1
    85    40    81   1
    86    42    82   1
    87    47    83   1
    88    48    84   1
    89    49    85   1
    90    50    86   1
    91    51    87   1
@<TRIPOS>SUBSTRUCTURE
     1  MOL      1

