@<TRIPOS>MOLECULE
2xy9_ligand_079
    87    91
SMALL
GAST_HUCK
****
This file was generated by PARSER (from files_GN.cpp)

@<TRIPOS>ATOM
      1 CAQ        11.9412   -2.1294  -19.4934 C.ar        1 MOL      -0.0578
      2 CAK        12.0804   -1.3760  -18.3091 C.ar        1 MOL      -0.0685
      3 CAH        12.4916   -2.0057  -17.1201 C.ar        1 MOL      -0.0687
      4 CAL        12.7625   -3.3853  -17.1140 C.ar        1 MOL      -0.0685
      5 CAR        12.6132   -4.1392  -18.2967 C.ar        1 MOL      -0.0578
      6 CBP        12.2086   -3.5231  -19.5027 C.ar        1 MOL      -0.0130
      7 CBB        12.0819   -4.3152  -20.7517 C.3         1 MOL       0.1113
      8 OBJ        13.1342   -5.2838  -20.8263 O.3         1 MOL      -0.2506
      9 CBM        13.5504   -6.0110  -21.8978 C.2         1 MOL       0.3232
     10 OAB        12.9524   -5.8740  -23.1087 O.2         1 MOL      -0.3774
     11 NBI        14.6560   -6.7569  -21.6710 N.am        1 MOL      -0.2418
     12 CBX        15.4253   -7.5835  -22.5590 C.3         1 MOL       0.1176
     13 CBE        14.5973   -8.8330  -22.9978 C.3         1 MOL       0.0205
     14 CBQ        15.3527   -9.8515  -23.7757 C.ar        1 MOL      -0.0393
     15 CAS        14.8884  -10.3102  -25.0356 C.ar        1 MOL      -0.0602
     16 CAM        15.6421  -11.2179  -25.7978 C.ar        1 MOL      -0.0686
     17 CAI        16.8748  -11.6941  -25.3101 C.ar        1 MOL      -0.0687
     18 CAN        17.3434  -11.2603  -24.0524 C.ar        1 MOL      -0.0686
     19 CAT        16.5831  -10.3635  -23.2875 C.ar        1 MOL      -0.0602
     20 PBY        16.2080   -6.7642  -23.8080 P.3         1 MOL       0.0154
     21 OAG        15.5686   -6.9302  -25.0873 O.co2       1 MOL      -0.6174
     22 OAD        17.3849   -7.5621  -24.0756 O.co2       1 MOL      -0.6174
     23 N          14.0764   -4.4472  -24.6977 N.am        1 MOL      -0.2694
     24 CA         12.8907   -4.2666  -25.5353 C.3         1 MOL       0.1024
     25 C          12.2770   -5.5861  -25.8690 C.2         1 MOL       0.0619
     26 OXT        13.0292   -6.7096  -25.9280 O.co2       1 MOL      -0.5665
     27 O          11.0551   -5.6609  -26.4464 O.co2       1 MOL      -0.5665
     28 CB         12.9683   -3.3649  -26.8142 C.3         1 MOL       0.0108
     29 CG         13.7408   -3.9091  -27.9644 C.ar        1 MOL      -0.0499
     30 CD1        15.0525   -3.4622  -28.2460 C.ar        1 MOL      -0.0686
     31 CE1        15.7601   -3.9473  -29.3663 C.ar        1 MOL      -0.0398
     32 CZ         15.1493   -4.8640  -30.2410 C.ar        1 MOL       0.0805
     33 OH         15.8327   -5.2971  -31.3322 O.3         1 MOL      -0.3376
     34 CE2        13.8392   -5.3160  -29.9783 C.ar        1 MOL      -0.0398
     35 CD2        13.1432   -4.8371  -28.8488 C.ar        1 MOL      -0.0686
     36 CBF        16.8784   -5.2326  -23.6697 C.3         1 MOL       0.0375
     37 CBV        16.0333   -3.9400  -23.3557 C.3         1 MOL       0.0788
     38 CBN        15.0735   -3.6030  -24.4148 C.2         1 MOL       0.1848
     39 OAC        15.1973   -2.5264  -24.9940 O.2         1 MOL      -0.3964
     40 CBC        15.3834   -3.9138  -21.9313 C.3         1 MOL       0.0422
     41 CBS        15.4397   -2.6577  -21.1747 C.2         1 MOL       0.1411
     42 CBA        16.1473   -2.4019  -20.0086 C.2         1 MOL      -0.0269
     43 OBK        14.6386   -1.5957  -21.4026 O.3         1 MOL      -0.1670
     44 NBG        14.8290   -0.7038  -20.4687 N.2         1 MOL      -0.1519
     45 CBU        15.7521   -1.1357  -19.5826 C.2         1 MOL       0.0430
     46 CBT        16.2125   -0.3799  -18.4649 C.ar        1 MOL      -0.0150
     47 CAU        17.3667   -0.7566  -17.7341 C.ar        1 MOL      -0.0551
     48 CAO        17.8528    0.0463  -16.6871 C.ar        1 MOL      -0.0621
     49 CAJ        17.1825    1.2297  -16.3358 C.ar        1 MOL      -0.0626
     50 CAP        16.0206    1.6059  -17.0267 C.ar        1 MOL      -0.0621
     51 CAV        15.5410    0.8125  -18.0860 C.ar        1 MOL      -0.0551
     52 H1         11.6406   -1.6526  -20.3425 H           1 MOL       0.0557
     53 H2         11.8765   -0.3739  -18.3108 H           1 MOL       0.0599
     54 H3         12.5916   -1.4580  -16.2592 H           1 MOL       0.0559
     55 H4         13.0599   -3.8426  -16.2467 H           1 MOL       0.0599
     56 H5         12.8177   -5.1421  -18.2683 H           1 MOL       0.0557
     57 H6         12.1682   -3.6688  -21.6304 H           1 MOL       0.0776
     58 H7         11.1125   -4.8229  -20.7741 H           1 MOL       0.0776
     59 H8         14.9805   -6.7419  -20.7484 H           1 MOL       0.1888
     60 H9         16.2295   -7.9516  -21.9180 H           1 MOL       0.0787
     61 H10        13.7381   -8.4885  -23.5796 H           1 MOL       0.0465
     62 H11        14.1918   -9.3269  -22.1082 H           1 MOL       0.0465
     63 H12        14.0077   -9.9654  -25.4235 H           1 MOL       0.0557
     64 H13        15.2968  -11.5387  -26.7093 H           1 MOL       0.0599
     65 H14        17.4259  -12.3509  -25.8687 H           1 MOL       0.0559
     66 H15        18.2362  -11.6118  -23.6955 H           1 MOL       0.0599
     67 H16        16.9353  -10.0636  -22.3756 H           1 MOL       0.0557
     68 H17        14.0980   -5.2579  -24.1474 H           1 MOL       0.1876
     69 H18        12.1671   -3.7848  -24.8632 H           1 MOL       0.0747
     70 H19        13.3593   -2.3930  -26.5344 H           1 MOL       0.0446
     71 H20        11.9501   -3.1558  -27.1543 H           1 MOL       0.0446
     72 H21        15.5046   -2.7658  -27.6566 H           1 MOL       0.0530
     73 H22        16.7108   -3.6210  -29.5494 H           1 MOL       0.0525
     74 H23        15.3531   -4.9278  -32.1081 H           1 MOL       0.2458
     75 H24        13.3959   -5.9824  -30.6092 H           1 MOL       0.0525
     76 H25        12.1883   -5.1590  -28.6979 H           1 MOL       0.0530
     77 H26        17.3878   -5.0370  -24.6214 H           1 MOL       0.0495
     78 H27        17.6632   -5.3109  -22.9230 H           1 MOL       0.0495
     79 H28        16.7958   -3.1614  -23.3393 H           1 MOL       0.0581
     80 H29        15.8162   -4.6985  -21.3168 H           1 MOL       0.0513
     81 H30        14.3213   -4.0976  -22.0224 H           1 MOL       0.0513
     82 H31        16.8099   -3.0316  -19.5543 H           1 MOL       0.0289
     83 H32        17.8823   -1.6105  -17.9705 H           1 MOL       0.0616
     84 H33        18.6958   -0.2332  -16.1838 H           1 MOL       0.0615
     85 H34        17.5385    1.8165  -15.5819 H           1 MOL       0.0610
     86 H35        15.5213    2.4565  -16.7675 H           1 MOL       0.0615
     87 H36        14.6927    1.1143  -18.5730 H           1 MOL       0.0616
@<TRIPOS>BOND
     1     1     2  ar
     2     6     1  ar
     3     2     3  ar
     4     4     3  ar
     5     5     4  ar
     6     6     5  ar
     7     7     6   1
     8     8     7   1
     9     9     8   1
    10     9    10   2
    11    11     9  am
    12    12    11   1
    13    12    13   1
    14    20    12   1
    15    13    14   1
    16    14    15  ar
    17    14    19  ar
    18    15    16  ar
    19    16    17  ar
    20    18    17  ar
    21    19    18  ar
    22    20    21  ar
    23    20    22  ar
    24    36    20   1
    25    23    24   1
    26    38    23  am
    27    24    25   1
    28    24    28   1
    29    25    26  ar
    30    25    27  ar
    31    28    29   1
    32    29    30  ar
    33    29    35  ar
    34    30    31  ar
    35    31    32  ar
    36    32    33   1
    37    34    32  ar
    38    35    34  ar
    39    37    36   1
    40    37    38   1
    41    37    40   1
    42    38    39   2
    43    40    41   1
    44    41    42   2
    45    41    43   1
    46    42    45   1
    47    43    44   1
    48    44    45   2
    49    45    46   1
    50    46    47  ar
    51    46    51  ar
    52    47    48  ar
    53    48    49  ar
    54    49    50  ar
    55    50    51  ar
    56     1    52   1
    57     2    53   1
    58     3    54   1
    59     4    55   1
    60     5    56   1
    61     7    57   1
    62     7    58   1
    63    11    59   1
    64    12    60   1
    65    13    61   1
    66    13    62   1
    67    15    63   1
    68    16    64   1
    69    17    65   1
    70    18    66   1
    71    19    67   1
    72    23    68   1
    73    24    69   1
    74    28    70   1
    75    28    71   1
    76    30    72   1
    77    31    73   1
    78    33    74   1
    79    34    75   1
    80    35    76   1
    81    36    77   1
    82    36    78   1
    83    37    79   1
    84    40    80   1
    85    40    81   1
    86    42    82   1
    87    47    83   1
    88    48    84   1
    89    49    85   1
    90    50    86   1
    91    51    87   1
@<TRIPOS>SUBSTRUCTURE
     1  MOL      1

