@<TRIPOS>MOLECULE
2xy9_ligand_089
    87    91
SMALL
GAST_HUCK
****
This file was generated by PARSER (from files_GN.cpp)

@<TRIPOS>ATOM
      1 CAQ        12.3117   -4.7068  -18.7333 C.ar        1 MOL      -0.0578
      2 CAK        11.9101   -4.2191  -17.4744 C.ar        1 MOL      -0.0685
      3 CAH        11.5045   -2.8815  -17.3355 C.ar        1 MOL      -0.0687
      4 CAL        11.4868   -2.0369  -18.4585 C.ar        1 MOL      -0.0685
      5 CAR        11.8760   -2.5283  -19.7192 C.ar        1 MOL      -0.0578
      6 CBP        12.3238   -3.8627  -19.8705 C.ar        1 MOL      -0.0130
      7 CBB        12.7412   -4.3699  -21.2077 C.3         1 MOL       0.1113
      8 OBJ        13.6929   -5.4368  -21.1181 O.3         1 MOL      -0.2506
      9 CBM        13.9045   -6.4600  -21.9856 C.2         1 MOL       0.3232
     10 OAB        13.1775   -6.5470  -23.1281 O.2         1 MOL      -0.3774
     11 NBI        14.8652   -7.3547  -21.6634 N.am        1 MOL      -0.2418
     12 CBX        15.3177   -8.4949  -22.4199 C.3         1 MOL       0.1176
     13 CBE        14.1691   -9.5257  -22.6868 C.3         1 MOL       0.0205
     14 CBQ        14.4765  -10.9308  -23.0873 C.ar        1 MOL      -0.0393
     15 CAS        15.7487  -11.5415  -22.9467 C.ar        1 MOL      -0.0602
     16 CAM        15.9584  -12.8770  -23.3402 C.ar        1 MOL      -0.0686
     17 CAI        14.8971  -13.6334  -23.8711 C.ar        1 MOL      -0.0687
     18 CAN        13.6200  -13.0569  -23.9870 C.ar        1 MOL      -0.0686
     19 CAT        13.4147  -11.7256  -23.5915 C.ar        1 MOL      -0.0602
     20 PBY        16.2002   -8.0108  -23.7681 P.3         1 MOL       0.0154
     21 OAG        16.6234   -9.1612  -24.5298 O.co2       1 MOL      -0.6174
     22 OAD        17.4385   -7.4340  -23.3119 O.co2       1 MOL      -0.6174
     23 N          14.3985   -4.6793  -26.4309 N.am        1 MOL      -0.2694
     24 CA         13.3866   -4.0163  -27.1960 C.3         1 MOL       0.1024
     25 C          12.3408   -4.9792  -27.6234 C.2         1 MOL       0.0619
     26 OXT        11.9240   -5.0746  -28.9023 O.co2       1 MOL      -0.5665
     27 O          11.6629   -5.6959  -26.6915 O.co2       1 MOL      -0.5665
     28 CB         13.9752   -3.0375  -28.2679 C.3         1 MOL       0.0108
     29 CG         15.0552   -3.5777  -29.1431 C.ar        1 MOL      -0.0499
     30 CD1        16.4161   -3.3211  -28.8450 C.ar        1 MOL      -0.0686
     31 CE1        17.4435   -3.8763  -29.6282 C.ar        1 MOL      -0.0398
     32 CZ         17.1290   -4.7006  -30.7253 C.ar        1 MOL       0.0805
     33 OH         18.1395   -5.2219  -31.4661 O.3         1 MOL      -0.3376
     34 CE2        15.7785   -4.9373  -31.0538 C.ar        1 MOL      -0.0398
     35 CD2        14.7521   -4.3696  -30.2767 C.ar        1 MOL      -0.0686
     36 CBF        15.3988   -6.9714  -24.7977 C.3         1 MOL       0.0375
     37 CBV        16.2157   -6.1751  -25.8646 C.3         1 MOL       0.0788
     38 CBN        15.2726   -5.6004  -26.8248 C.2         1 MOL       0.1848
     39 OAC        15.2461   -6.0380  -27.9700 O.2         1 MOL      -0.3964
     40 CBC        17.1794   -5.0851  -25.2671 C.3         1 MOL       0.0422
     41 CBS        16.5615   -4.1607  -24.2847 C.2         1 MOL       0.1411
     42 CBA        16.4703   -4.3131  -22.9102 C.2         1 MOL      -0.0269
     43 OBK        15.9325   -3.0023  -24.5918 O.3         1 MOL      -0.1670
     44 NBG        15.4675   -2.4626  -23.4956 N.2         1 MOL      -0.1519
     45 CBU        15.7564   -3.2221  -22.4216 C.2         1 MOL       0.0430
     46 CBT        15.4348   -2.8898  -21.0768 C.ar        1 MOL      -0.0150
     47 CAU        15.6904   -3.7763  -20.0015 C.ar        1 MOL      -0.0551
     48 CAO        15.4299   -3.3926  -18.6714 C.ar        1 MOL      -0.0621
     49 CAJ        14.9220   -2.1136  -18.3911 C.ar        1 MOL      -0.0626
     50 CAP        14.6512   -1.2232  -19.4423 C.ar        1 MOL      -0.0621
     51 CAV        14.9054   -1.6138  -20.7694 C.ar        1 MOL      -0.0551
     52 H1         12.5983   -5.6833  -18.8063 H           1 MOL       0.0557
     53 H2         11.9127   -4.8383  -16.6612 H           1 MOL       0.0599
     54 H3         11.2150   -2.5253  -16.4198 H           1 MOL       0.0559
     55 H4         11.1913   -1.0653  -18.3548 H           1 MOL       0.0599
     56 H5         11.8382   -1.8987  -20.5252 H           1 MOL       0.0557
     57 H6         13.2003   -3.5721  -21.7957 H           1 MOL       0.0776
     58 H7         11.8451   -4.7080  -21.7267 H           1 MOL       0.0776
     59 H8         15.2697   -7.2247  -20.7903 H           1 MOL       0.1888
     60 H9         16.0273   -8.9852  -21.7603 H           1 MOL       0.0787
     61 H10        13.5160   -9.1051  -23.4559 H           1 MOL       0.0465
     62 H11        13.5716   -9.6086  -21.7738 H           1 MOL       0.0465
     63 H12        16.5368  -11.0267  -22.5545 H           1 MOL       0.0557
     64 H13        16.8842  -13.3051  -23.2390 H           1 MOL       0.0599
     65 H14        15.0517  -14.6049  -24.1596 H           1 MOL       0.0559
     66 H15        12.8417  -13.6118  -24.3579 H           1 MOL       0.0599
     67 H16        12.4736  -11.3322  -23.6825 H           1 MOL       0.0557
     68 H17        14.4242   -4.4492  -25.4921 H           1 MOL       0.1876
     69 H18        12.8692   -3.3677  -26.4853 H           1 MOL       0.0747
     70 H19        14.3667   -2.1690  -27.7300 H           1 MOL       0.0446
     71 H20        13.1678   -2.6507  -28.8886 H           1 MOL       0.0446
     72 H21        16.6710   -2.7343  -28.0466 H           1 MOL       0.0530
     73 H22        18.4213   -3.6925  -29.3900 H           1 MOL       0.0525
     74 H23        17.7148   -5.7667  -32.1626 H           1 MOL       0.2458
     75 H24        15.5415   -5.5161  -31.8626 H           1 MOL       0.0525
     76 H25        13.7845   -4.5293  -30.5567 H           1 MOL       0.0530
     77 H26        14.8918   -6.2215  -24.2068 H           1 MOL       0.0495
     78 H27        14.6253   -7.5741  -25.2888 H           1 MOL       0.0495
     79 H28        16.8538   -6.9001  -26.3918 H           1 MOL       0.0581
     80 H29        17.6012   -4.4891  -26.0783 H           1 MOL       0.0513
     81 H30        18.0263   -5.5789  -24.7879 H           1 MOL       0.0513
     82 H31        16.8534   -5.0822  -22.3665 H           1 MOL       0.0289
     83 H32        16.0704   -4.7083  -20.1620 H           1 MOL       0.0616
     84 H33        15.6140   -4.0421  -17.9104 H           1 MOL       0.0615
     85 H34        14.7549   -1.8278  -17.4195 H           1 MOL       0.0610
     86 H35        14.2773   -0.2928  -19.2456 H           1 MOL       0.0615
     87 H36        14.7153   -0.9346  -21.5085 H           1 MOL       0.0616
@<TRIPOS>BOND
     1     1     2  ar
     2     6     1  ar
     3     2     3  ar
     4     4     3  ar
     5     5     4  ar
     6     6     5  ar
     7     7     6   1
     8     8     7   1
     9     9     8   1
    10     9    10   2
    11    11     9  am
    12    12    11   1
    13    12    13   1
    14    20    12   1
    15    13    14   1
    16    14    15  ar
    17    14    19  ar
    18    15    16  ar
    19    16    17  ar
    20    18    17  ar
    21    19    18  ar
    22    20    21  ar
    23    20    22  ar
    24    36    20   1
    25    23    24   1
    26    38    23  am
    27    24    25   1
    28    24    28   1
    29    25    26  ar
    30    25    27  ar
    31    28    29   1
    32    29    30  ar
    33    29    35  ar
    34    30    31  ar
    35    31    32  ar
    36    32    33   1
    37    34    32  ar
    38    35    34  ar
    39    37    36   1
    40    37    38   1
    41    37    40   1
    42    38    39   2
    43    40    41   1
    44    41    42   2
    45    41    43   1
    46    42    45   1
    47    43    44   1
    48    44    45   2
    49    45    46   1
    50    46    47  ar
    51    46    51  ar
    52    47    48  ar
    53    48    49  ar
    54    49    50  ar
    55    50    51  ar
    56     1    52   1
    57     2    53   1
    58     3    54   1
    59     4    55   1
    60     5    56   1
    61     7    57   1
    62     7    58   1
    63    11    59   1
    64    12    60   1
    65    13    61   1
    66    13    62   1
    67    15    63   1
    68    16    64   1
    69    17    65   1
    70    18    66   1
    71    19    67   1
    72    23    68   1
    73    24    69   1
    74    28    70   1
    75    28    71   1
    76    30    72   1
    77    31    73   1
    78    33    74   1
    79    34    75   1
    80    35    76   1
    81    36    77   1
    82    36    78   1
    83    37    79   1
    84    40    80   1
    85    40    81   1
    86    42    82   1
    87    47    83   1
    88    48    84   1
    89    49    85   1
    90    50    86   1
    91    51    87   1
@<TRIPOS>SUBSTRUCTURE
     1  MOL      1

