@<TRIPOS>MOLECULE
2xy9_ligand_038
    87    91
SMALL
GAST_HUCK
****
This file was generated by PARSER (from files_GN.cpp)

@<TRIPOS>ATOM
      1 CAQ        16.8289    3.5069  -17.3333 C.ar        1 MOL      -0.0578
      2 CAK        17.3694    4.4223  -16.4091 C.ar        1 MOL      -0.0685
      3 CAH        16.9567    5.7678  -16.4277 C.ar        1 MOL      -0.0687
      4 CAL        16.0102    6.1964  -17.3722 C.ar        1 MOL      -0.0685
      5 CAR        15.4756    5.2814  -18.3002 C.ar        1 MOL      -0.0578
      6 CBP        15.8674    3.9199  -18.2870 C.ar        1 MOL      -0.0130
      7 CBB        15.2799    2.9908  -19.2894 C.3         1 MOL       0.1113
      8 OBJ        15.7270    1.6319  -19.1499 O.3         1 MOL      -0.2506
      9 CBM        15.0361    0.4746  -19.3575 C.2         1 MOL       0.3232
     10 OAB        13.7574    0.4795  -19.8018 O.2         1 MOL      -0.3774
     11 NBI        15.6879   -0.6664  -19.0545 N.am        1 MOL      -0.2418
     12 CBX        15.1594   -2.0046  -19.0271 C.3         1 MOL       0.1176
     13 CBE        14.1508   -2.2509  -17.8468 C.3         1 MOL       0.0205
     14 CBQ        14.2600   -1.2909  -16.7088 C.ar        1 MOL      -0.0393
     15 CAS        15.0879   -1.5760  -15.5983 C.ar        1 MOL      -0.0602
     16 CAM        15.2000   -0.6553  -14.5371 C.ar        1 MOL      -0.0686
     17 CAI        14.4895    0.5588  -14.5708 C.ar        1 MOL      -0.0687
     18 CAN        13.6616    0.8523  -15.6689 C.ar        1 MOL      -0.0686
     19 CAT        13.5482   -0.0626  -16.7291 C.ar        1 MOL      -0.0602
     20 PBY        14.6108   -2.5453  -20.5299 P.3         1 MOL       0.0154
     21 OAG        14.7839   -1.5097  -21.5287 O.co2       1 MOL      -0.6174
     22 OAD        13.1870   -2.7802  -20.5181 O.co2       1 MOL      -0.6174
     23 N          13.6394   -4.9334  -24.2695 N.am        1 MOL      -0.2694
     24 CA         13.3323   -4.5579  -25.6278 C.3         1 MOL       0.1024
     25 C          11.8549   -4.6562  -25.7627 C.2         1 MOL       0.0619
     26 OXT        11.2399   -5.7686  -26.2463 O.co2       1 MOL      -0.5665
     27 O          11.0668   -3.6910  -25.2451 O.co2       1 MOL      -0.5665
     28 CB         14.0547   -5.4363  -26.7052 C.3         1 MOL       0.0108
     29 CG         15.5226   -5.1811  -26.8405 C.ar        1 MOL      -0.0499
     30 CD1        16.4085   -5.5308  -25.7930 C.ar        1 MOL      -0.0686
     31 CE1        17.7976   -5.3511  -25.9328 C.ar        1 MOL      -0.0398
     32 CZ         18.3241   -4.8158  -27.1275 C.ar        1 MOL       0.0805
     33 OH         19.6688   -4.6613  -27.2621 O.3         1 MOL      -0.3376
     34 CE2        17.4553   -4.4455  -28.1741 C.ar        1 MOL      -0.0398
     35 CD2        16.0638   -4.6300  -28.0326 C.ar        1 MOL      -0.0686
     36 CBF        15.3419   -3.9637  -21.0402 C.3         1 MOL       0.0375
     37 CBV        14.6177   -4.9262  -22.0593 C.3         1 MOL       0.0788
     38 CBN        14.5878   -4.4733  -23.4565 C.2         1 MOL       0.1848
     39 OAC        15.4189   -3.6685  -23.8726 O.2         1 MOL      -0.3964
     40 CBC        15.1716   -6.3945  -21.8613 C.3         1 MOL       0.0422
     41 CBS        15.4012   -7.2828  -23.0248 C.2         1 MOL       0.1411
     42 CBA        14.4943   -7.8059  -23.9321 C.2         1 MOL      -0.0269
     43 OBK        16.6194   -7.7658  -23.3612 O.3         1 MOL      -0.1670
     44 NBG        16.5115   -8.5033  -24.4332 N.2         1 MOL      -0.1519
     45 CBU        15.2290   -8.5571  -24.8484 C.2         1 MOL       0.0430
     46 CBT        14.7942   -9.1994  -26.0436 C.ar        1 MOL      -0.0150
     47 CAU        13.4406   -9.1481  -26.4742 C.ar        1 MOL      -0.0551
     48 CAO        13.0472   -9.7179  -27.6997 C.ar        1 MOL      -0.0621
     49 CAJ        13.9954  -10.3618  -28.5166 C.ar        1 MOL      -0.0626
     50 CAP        15.3368  -10.4338  -28.1007 C.ar        1 MOL      -0.0621
     51 CAV        15.7277   -9.8600  -26.8791 C.ar        1 MOL      -0.0551
     52 H1         17.1570    2.5384  -17.3056 H           1 MOL       0.0557
     53 H2         18.0639    4.1127  -15.7282 H           1 MOL       0.0599
     54 H3         17.3507    6.4336  -15.7569 H           1 MOL       0.0559
     55 H4         15.7088    7.1732  -17.3853 H           1 MOL       0.0599
     56 H5         14.7900    5.6159  -18.9817 H           1 MOL       0.0557
     57 H6         15.5670    3.3380  -20.2830 H           1 MOL       0.0776
     58 H7         14.1884    3.0341  -19.2171 H           1 MOL       0.0776
     59 H8         16.5995   -0.5588  -18.7325 H           1 MOL       0.1888
     60 H9         16.0391   -2.6129  -18.8013 H           1 MOL       0.0787
     61 H10        14.3023   -3.2627  -17.4573 H           1 MOL       0.0465
     62 H11        13.1288   -2.2151  -18.2350 H           1 MOL       0.0465
     63 H12        15.6101   -2.4563  -15.5540 H           1 MOL       0.0557
     64 H13        15.7935   -0.8720  -13.7355 H           1 MOL       0.0599
     65 H14        14.5697    1.2252  -13.7992 H           1 MOL       0.0559
     66 H15        13.1386    1.7319  -15.6948 H           1 MOL       0.0599
     67 H16        12.9468    0.1773  -17.5228 H           1 MOL       0.0557
     68 H17        13.0460   -5.6000  -23.8741 H           1 MOL       0.1876
     69 H18        13.5909   -3.5055  -25.7980 H           1 MOL       0.0747
     70 H19        13.5789   -5.2546  -27.6824 H           1 MOL       0.0446
     71 H20        13.9009   -6.4974  -26.4640 H           1 MOL       0.0446
     72 H21        16.0460   -5.9377  -24.9248 H           1 MOL       0.0530
     73 H22        18.4325   -5.6161  -25.1678 H           1 MOL       0.0525
     74 H23        19.8083   -3.7098  -27.0834 H           1 MOL       0.2458
     75 H24        17.8337   -4.0538  -29.0425 H           1 MOL       0.0525
     76 H25        15.4435   -4.3718  -28.8150 H           1 MOL       0.0530
     77 H26        15.5108   -4.5378  -20.1308 H           1 MOL       0.0495
     78 H27        16.3228   -3.6938  -21.4369 H           1 MOL       0.0495
     79 H28        13.5713   -4.9488  -21.7289 H           1 MOL       0.0581
     80 H29        14.5005   -6.9285  -21.1854 H           1 MOL       0.0513
     81 H30        16.1360   -6.3383  -21.3525 H           1 MOL       0.0513
     82 H31        13.4874   -7.6357  -23.9356 H           1 MOL       0.0289
     83 H32        12.7275   -8.6821  -25.9130 H           1 MOL       0.0616
     84 H33        12.0721   -9.6593  -28.0061 H           1 MOL       0.0615
     85 H34        13.7145  -10.7675  -29.4105 H           1 MOL       0.0610
     86 H35        16.0292  -10.9003  -28.6953 H           1 MOL       0.0615
     87 H36        16.7146   -9.9216  -26.6157 H           1 MOL       0.0616
@<TRIPOS>BOND
     1     1     2  ar
     2     6     1  ar
     3     2     3  ar
     4     4     3  ar
     5     5     4  ar
     6     6     5  ar
     7     7     6   1
     8     8     7   1
     9     9     8   1
    10     9    10   2
    11    11     9  am
    12    12    11   1
    13    12    13   1
    14    20    12   1
    15    13    14   1
    16    14    15  ar
    17    14    19  ar
    18    15    16  ar
    19    16    17  ar
    20    18    17  ar
    21    19    18  ar
    22    20    21  ar
    23    20    22  ar
    24    36    20   1
    25    23    24   1
    26    38    23  am
    27    24    25   1
    28    24    28   1
    29    25    26  ar
    30    25    27  ar
    31    28    29   1
    32    29    30  ar
    33    29    35  ar
    34    30    31  ar
    35    31    32  ar
    36    32    33   1
    37    34    32  ar
    38    35    34  ar
    39    37    36   1
    40    37    38   1
    41    37    40   1
    42    38    39   2
    43    40    41   1
    44    41    42   2
    45    41    43   1
    46    42    45   1
    47    43    44   1
    48    44    45   2
    49    45    46   1
    50    46    47  ar
    51    46    51  ar
    52    47    48  ar
    53    48    49  ar
    54    49    50  ar
    55    50    51  ar
    56     1    52   1
    57     2    53   1
    58     3    54   1
    59     4    55   1
    60     5    56   1
    61     7    57   1
    62     7    58   1
    63    11    59   1
    64    12    60   1
    65    13    61   1
    66    13    62   1
    67    15    63   1
    68    16    64   1
    69    17    65   1
    70    18    66   1
    71    19    67   1
    72    23    68   1
    73    24    69   1
    74    28    70   1
    75    28    71   1
    76    30    72   1
    77    31    73   1
    78    33    74   1
    79    34    75   1
    80    35    76   1
    81    36    77   1
    82    36    78   1
    83    37    79   1
    84    40    80   1
    85    40    81   1
    86    42    82   1
    87    47    83   1
    88    48    84   1
    89    49    85   1
    90    50    86   1
    91    51    87   1
@<TRIPOS>SUBSTRUCTURE
     1  MOL      1

