@<TRIPOS>MOLECULE
2xy9_ligand_075
    87    91
SMALL
GAST_HUCK
****
This file was generated by PARSER (from files_GN.cpp)

@<TRIPOS>ATOM
      1 CAQ        15.6327  -17.6874  -24.5752 C.ar        1 MOL      -0.0578
      2 CAK        15.4077  -17.3968  -23.2181 C.ar        1 MOL      -0.0685
      3 CAH        16.3754  -16.7073  -22.4742 C.ar        1 MOL      -0.0687
      4 CAL        17.5553  -16.2736  -23.0980 C.ar        1 MOL      -0.0685
      5 CAR        17.7536  -16.5110  -24.4736 C.ar        1 MOL      -0.0578
      6 CBP        16.7909  -17.2164  -25.2312 C.ar        1 MOL      -0.0130
      7 CBB        16.9425  -17.4162  -26.6993 C.3         1 MOL       0.1113
      8 OBJ        16.2348  -16.3528  -27.3678 O.3         1 MOL      -0.2506
      9 CBM        16.0739  -15.0987  -26.8780 C.2         1 MOL       0.3232
     10 OAB        16.6198  -14.8199  -25.6693 O.2         1 MOL      -0.3774
     11 NBI        15.1818  -14.2603  -27.4772 N.am        1 MOL      -0.2418
     12 CBX        14.4997  -13.1702  -26.8260 C.3         1 MOL       0.1176
     13 CBE        14.2403  -13.4808  -25.2778 C.3         1 MOL       0.0205
     14 CBQ        14.8710  -12.6377  -24.2120 C.ar        1 MOL      -0.0393
     15 CAS        16.2760  -12.4452  -24.1574 C.ar        1 MOL      -0.0602
     16 CAM        16.8676  -11.6258  -23.1785 C.ar        1 MOL      -0.0686
     17 CAI        16.0601  -11.0185  -22.2010 C.ar        1 MOL      -0.0687
     18 CAN        14.6713  -11.2368  -22.1977 C.ar        1 MOL      -0.0686
     19 CAT        14.0839  -12.0419  -23.1954 C.ar        1 MOL      -0.0602
     20 PBY        15.0967  -11.6784  -27.3620 P.3         1 MOL       0.0154
     21 OAG        16.5408  -11.6674  -27.4091 O.co2       1 MOL      -0.6174
     22 OAD        14.7758  -10.6914  -26.3627 O.co2       1 MOL      -0.6174
     23 N          13.4095   -8.1861  -27.1576 N.am        1 MOL      -0.2694
     24 CA         12.7052   -7.7717  -25.9794 C.3         1 MOL       0.1024
     25 C          12.3898   -6.3282  -26.0767 C.2         1 MOL       0.0619
     26 OXT        11.2106   -5.9140  -26.5939 O.co2       1 MOL      -0.5665
     27 O          13.2545   -5.3791  -25.6347 O.co2       1 MOL      -0.5665
     28 CB         13.5162   -8.1400  -24.6948 C.3         1 MOL       0.0108
     29 CG         14.8429   -7.4779  -24.4420 C.ar        1 MOL      -0.0499
     30 CD1        15.0085   -6.5870  -23.3519 C.ar        1 MOL      -0.0686
     31 CE1        16.2652   -6.0266  -23.0441 C.ar        1 MOL      -0.0398
     32 CZ         17.3960   -6.3545  -23.8199 C.ar        1 MOL       0.0805
     33 OH         18.6247   -5.8393  -23.5541 O.3         1 MOL      -0.3376
     34 CE2        17.2517   -7.2353  -24.9069 C.ar        1 MOL      -0.0398
     35 CD2        15.9953   -7.7948  -25.2040 C.ar        1 MOL      -0.0686
     36 CBF        14.4511  -11.1621  -28.8312 C.3         1 MOL       0.0375
     37 CBV        14.0770   -9.6416  -29.0497 C.3         1 MOL       0.0788
     38 CBN        13.1323   -9.1733  -28.0126 C.2         1 MOL       0.1848
     39 OAC        12.0820   -9.7957  -27.8861 O.2         1 MOL      -0.3964
     40 CBC        15.2410   -8.6352  -29.4236 C.3         1 MOL       0.0422
     41 CBS        16.6120   -9.1488  -29.5985 C.2         1 MOL       0.1411
     42 CBA        17.1204   -9.9641  -30.5890 C.2         1 MOL      -0.0269
     43 OBK        17.6565   -8.7294  -28.8448 O.3         1 MOL      -0.1670
     44 NBG        18.7533   -9.2435  -29.3180 N.2         1 MOL      -0.1519
     45 CBU        18.4944  -10.0224  -30.3891 C.2         1 MOL       0.0430
     46 CBT        19.4849  -10.7066  -31.1383 C.ar        1 MOL      -0.0150
     47 CAU        19.1487  -11.7802  -31.9966 C.ar        1 MOL      -0.0551
     48 CAO        20.1505  -12.4856  -32.6979 C.ar        1 MOL      -0.0621
     49 CAJ        21.4990  -12.1157  -32.5562 C.ar        1 MOL      -0.0626
     50 CAP        21.8498  -11.0435  -31.7232 C.ar        1 MOL      -0.0621
     51 CAV        20.8508  -10.3459  -31.0167 C.ar        1 MOL      -0.0551
     52 H1         14.9118  -18.1809  -25.0988 H           1 MOL       0.0557
     53 H2         14.5413  -17.6946  -22.7737 H           1 MOL       0.0599
     54 H3         16.2179  -16.5095  -21.4844 H           1 MOL       0.0559
     55 H4         18.2560  -15.7658  -22.5601 H           1 MOL       0.0599
     56 H5         18.6366  -16.2243  -24.9008 H           1 MOL       0.0557
     57 H6         16.5152  -18.3748  -26.9937 H           1 MOL       0.0776
     58 H7         17.9927  -17.4059  -27.0117 H           1 MOL       0.0776
     59 H8         14.8750  -14.4955  -28.3810 H           1 MOL       0.1888
     60 H9         13.4970  -13.2084  -27.2705 H           1 MOL       0.0787
     61 H10        14.5496  -14.5122  -25.0409 H           1 MOL       0.0465
     62 H11        13.1448  -13.4521  -25.1371 H           1 MOL       0.0465
     63 H12        16.8798  -12.8737  -24.8554 H           1 MOL       0.0557
     64 H13        17.8775  -11.4744  -23.1837 H           1 MOL       0.0599
     65 H14        16.4868  -10.4101  -21.5098 H           1 MOL       0.0559
     66 H15        14.0912  -10.7955  -21.4830 H           1 MOL       0.0599
     67 H16        13.0691  -12.1721  -23.1742 H           1 MOL       0.0557
     68 H17        14.2435   -7.7267  -27.2871 H           1 MOL       0.1876
     69 H18        11.7523   -8.3093  -25.9101 H           1 MOL       0.0747
     70 H19        13.6911   -9.2189  -24.7157 H           1 MOL       0.0446
     71 H20        12.8549   -7.9605  -23.8419 H           1 MOL       0.0446
     72 H21        14.2141   -6.3386  -22.7592 H           1 MOL       0.0530
     73 H22        16.3596   -5.3838  -22.2523 H           1 MOL       0.0525
     74 H23        18.7080   -5.8210  -22.5793 H           1 MOL       0.2458
     75 H24        18.0686   -7.4803  -25.4757 H           1 MOL       0.0525
     76 H25        15.9443   -8.4391  -25.9896 H           1 MOL       0.0530
     77 H26        13.5371  -11.7446  -28.9955 H           1 MOL       0.0495
     78 H27        15.1300  -11.4859  -29.6167 H           1 MOL       0.0495
     79 H28        13.4678   -9.6698  -29.9613 H           1 MOL       0.0581
     80 H29        15.3302   -7.8438  -28.6874 H           1 MOL       0.0513
     81 H30        14.9769   -8.1225  -30.3555 H           1 MOL       0.0513
     82 H31        16.5841  -10.3924  -31.3498 H           1 MOL       0.0289
     83 H32        18.1813  -12.0847  -32.1125 H           1 MOL       0.0616
     84 H33        19.8975  -13.2678  -33.3053 H           1 MOL       0.0615
     85 H34        22.2305  -12.6278  -33.0636 H           1 MOL       0.0610
     86 H35        22.8311  -10.7689  -31.6193 H           1 MOL       0.0615
     87 H36        21.1338   -9.5737  -30.4120 H           1 MOL       0.0616
@<TRIPOS>BOND
     1     1     2  ar
     2     6     1  ar
     3     2     3  ar
     4     4     3  ar
     5     5     4  ar
     6     6     5  ar
     7     7     6   1
     8     8     7   1
     9     9     8   1
    10     9    10   2
    11    11     9  am
    12    12    11   1
    13    12    13   1
    14    20    12   1
    15    13    14   1
    16    14    15  ar
    17    14    19  ar
    18    15    16  ar
    19    16    17  ar
    20    18    17  ar
    21    19    18  ar
    22    20    21  ar
    23    20    22  ar
    24    36    20   1
    25    23    24   1
    26    38    23  am
    27    24    25   1
    28    24    28   1
    29    25    26  ar
    30    25    27  ar
    31    28    29   1
    32    29    30  ar
    33    29    35  ar
    34    30    31  ar
    35    31    32  ar
    36    32    33   1
    37    34    32  ar
    38    35    34  ar
    39    37    36   1
    40    37    38   1
    41    37    40   1
    42    38    39   2
    43    40    41   1
    44    41    42   2
    45    41    43   1
    46    42    45   1
    47    43    44   1
    48    44    45   2
    49    45    46   1
    50    46    47  ar
    51    46    51  ar
    52    47    48  ar
    53    48    49  ar
    54    49    50  ar
    55    50    51  ar
    56     1    52   1
    57     2    53   1
    58     3    54   1
    59     4    55   1
    60     5    56   1
    61     7    57   1
    62     7    58   1
    63    11    59   1
    64    12    60   1
    65    13    61   1
    66    13    62   1
    67    15    63   1
    68    16    64   1
    69    17    65   1
    70    18    66   1
    71    19    67   1
    72    23    68   1
    73    24    69   1
    74    28    70   1
    75    28    71   1
    76    30    72   1
    77    31    73   1
    78    33    74   1
    79    34    75   1
    80    35    76   1
    81    36    77   1
    82    36    78   1
    83    37    79   1
    84    40    80   1
    85    40    81   1
    86    42    82   1
    87    47    83   1
    88    48    84   1
    89    49    85   1
    90    50    86   1
    91    51    87   1
@<TRIPOS>SUBSTRUCTURE
     1  MOL      1

