@<TRIPOS>MOLECULE
2xys_ligand_031
    50    56
SMALL
GAST_HUCK
****
This file was generated by PARSER (from files_GN.cpp)

@<TRIPOS>ATOM
      1 CAV       -30.3923   -0.0303  -15.1613 C.3         1 SY9      -0.0392
      2 CAU       -31.1443   -0.9905  -14.1968 C.3         1 SY9      -0.0074
      3 CAT       -31.3998   -0.1934  -12.8721 C.3         1 SY9      -0.0009
      4 CAN       -32.4801    0.8737  -13.2402 C.3         1 SY9       0.0127
      5 CAK       -31.9050    1.9181  -14.2553 C.3         1 SY9       0.0377
      6 NAH       -33.0399    2.6056  -14.7798 N.pl3       1 SY9      -0.2664
      7 CAA       -33.2958    2.1727  -16.0351 C.ar        1 SY9       0.0752
      8 CAF       -34.3964    2.4326  -16.8795 C.ar        1 SY9      -0.0107
      9 CAE       -34.4417    1.8393  -18.1547 C.ar        1 SY9      -0.0448
     10 CAD       -33.3983    0.9991  -18.5912 C.ar        1 SY9      -0.0454
     11 CAC       -32.2966    0.7443  -17.7512 C.ar        1 SY9      -0.0502
     12 CAB       -32.2618    1.3254  -16.4673 C.ar        1 SY9      -0.0229
     13 CAG       -31.1580    1.2963  -15.4880 C.3         1 SY9       0.0241
     14 CAW       -29.9849    2.1830  -15.9771 C.3         1 SY9      -0.0311
     15 CAX       -28.8256    1.8044  -15.0384 C.3         1 SY9      -0.0400
     16 NAY       -29.0781    0.4088  -14.5762 N.4         1 SY9       0.2407
     17 CAS       -28.9077    0.1959  -13.0925 C.3         1 SY9      -0.0074
     18 CAR       -30.1551    0.4096  -12.3324 C.2         1 SY9      -0.0310
     19 CAQ       -30.1512    1.2054  -11.2405 C.2         1 SY9      -0.0782
     20 CAP       -31.3208    1.5873  -10.4663 C.3         1 SY9       0.0552
     21 OAO       -32.2651    2.3579  -11.2396 O.3         1 SY9      -0.3712
     22 CAM       -33.1862    1.6158  -12.0642 C.3         1 SY9       0.0708
     23 CAL       -34.2891    2.5688  -12.6400 C.3         1 SY9       0.0233
     24 CAI       -33.8540    3.4021  -13.8882 C.3         1 SY9       0.1466
     25 OAJ       -33.1343    4.5653  -13.4832 O.3         1 SY9      -0.3686
     26 H1        -30.1829   -0.5728  -16.0885 H           1 SY9       0.0728
     27 H2        -30.5311   -1.8729  -13.9979 H           1 SY9       0.0333
     28 H3        -32.0693   -1.3488  -14.6570 H           1 SY9       0.0333
     29 H4        -31.8114   -0.8878  -12.1335 H           1 SY9       0.0453
     30 H5        -33.2967    0.3272  -13.7313 H           1 SY9       0.0364
     31 H6        -31.2446    2.6186  -13.7340 H           1 SY9       0.0464
     32 H7        -35.1601    3.0405  -16.5787 H           1 SY9       0.0603
     33 H8        -35.2349    2.0162  -18.7737 H           1 SY9       0.0812
     34 H9        -33.4386    0.5824  -19.5226 H           1 SY9       0.0608
     35 H10       -31.5291    0.1572  -18.0818 H           1 SY9       0.0786
     36 H11       -30.2115    3.2528  -15.9310 H           1 SY9       0.0203
     37 H12       -29.7115    1.9339  -17.0080 H           1 SY9       0.0203
     38 H13       -28.7908    2.5181  -14.2091 H           1 SY9       0.0805
     39 H14       -27.8709    1.8538  -15.5670 H           1 SY9       0.0805
     40 H15       -28.3609   -0.1698  -15.0212 H           1 SY9       0.2039
     41 H16       -28.6109   -0.8453  -12.9433 H           1 SY9       0.0964
     42 H17       -28.0682    0.7922  -12.7204 H           1 SY9       0.0964
     43 H18       -29.2856    1.5911  -10.9387 H           1 SY9       0.0266
     44 H19       -31.0023    2.2306   -9.6417 H           1 SY9       0.0635
     45 H20       -31.7803    0.7032  -10.0153 H           1 SY9       0.0635
     46 H21       -33.6995    0.8805  -11.4341 H           1 SY9       0.0604
     47 H22       -34.6400    3.2455  -11.8557 H           1 SY9       0.0338
     48 H23       -35.1421    1.9509  -12.9383 H           1 SY9       0.0338
     49 H24       -34.7523    3.7640  -14.3923 H           1 SY9       0.0886
     50 H25       -32.3866    4.2424  -12.9377 H           1 SY9       0.2123
@<TRIPOS>BOND
     1     1     2   1
     2     1    13   1
     3     1    16   1
     4     2     3   1
     5     3     4   1
     6     3    18   1
     7     4     5   1
     8     4    22   1
     9     5     6   1
    10     5    13   1
    11     6     7   1
    12     6    24   1
    13     7     8  ar
    14     7    12  ar
    15     8     9  ar
    16     9    10  ar
    17    10    11  ar
    18    11    12  ar
    19    12    13   1
    20    13    14   1
    21    14    15   1
    22    15    16   1
    23    16    17   1
    24    17    18   1
    25    18    19   2
    26    19    20   1
    27    20    21   1
    28    21    22   1
    29    22    23   1
    30    23    24   1
    31    24    25   1
    32     1    26   1
    33     2    27   1
    34     2    28   1
    35     3    29   1
    36     4    30   1
    37     5    31   1
    38     8    32   1
    39     9    33   1
    40    10    34   1
    41    11    35   1
    42    14    36   1
    43    14    37   1
    44    15    38   1
    45    15    39   1
    46    16    40   1
    47    17    41   1
    48    17    42   1
    49    19    43   1
    50    20    44   1
    51    20    45   1
    52    22    46   1
    53    23    47   1
    54    23    48   1
    55    24    49   1
    56    25    50   1
@<TRIPOS>SUBSTRUCTURE
     1  SY9      1

