@<TRIPOS>MOLECULE
2xys_ligand_029
    50    56
SMALL
GAST_HUCK
****
This file was generated by PARSER (from files_GN.cpp)

@<TRIPOS>ATOM
      1 CAV       -46.3293   -2.5932  -16.2853 C.3         1 SY9      -0.0392
      2 CAU       -45.6130   -3.0997  -17.5669 C.3         1 SY9      -0.0074
      3 CAT       -46.7216   -3.6681  -18.5121 C.3         1 SY9      -0.0009
      4 CAN       -47.5222   -2.4344  -19.0397 C.3         1 SY9       0.0127
      5 CAK       -48.1765   -1.6036  -17.8826 C.3         1 SY9       0.0377
      6 NAH       -48.3168   -0.2829  -18.4253 N.pl3       1 SY9      -0.2664
      7 CAA       -47.5013    0.5806  -17.7815 C.ar        1 SY9       0.0752
      8 CAF       -47.2226    1.9330  -18.0735 C.ar        1 SY9      -0.0107
      9 CAE       -46.3022    2.6380  -17.2738 C.ar        1 SY9      -0.0448
     10 CAD       -45.6656    1.9972  -16.1917 C.ar        1 SY9      -0.0454
     11 CAC       -45.9475    0.6479  -15.9017 C.ar        1 SY9      -0.0502
     12 CAB       -46.8614   -0.0581  -16.7115 C.ar        1 SY9      -0.0229
     13 CAG       -47.3528   -1.4418  -16.5501 C.3         1 SY9       0.0241
     14 CAW       -48.2369   -1.5610  -15.2824 C.3         1 SY9      -0.0311
     15 CAX       -48.3652   -3.0768  -15.0722 C.3         1 SY9      -0.0400
     16 NAY       -47.1166   -3.6834  -15.6104 N.4         1 SY9       0.2407
     17 CAS       -47.3267   -4.9408  -16.4083 C.3         1 SY9      -0.0074
     18 CAR       -47.5695   -4.6761  -17.8376 C.2         1 SY9      -0.0310
     19 CAQ       -48.5434   -5.3381  -18.4954 C.2         1 SY9      -0.0782
     20 CAP       -48.9307   -5.0758  -19.8677 C.3         1 SY9       0.0552
     21 OAO       -49.4777   -3.7522  -19.9854 O.3         1 SY9      -0.3712
     22 CAM       -48.5799   -2.6364  -20.1830 C.3         1 SY9       0.0708
     23 CAL       -49.4888   -1.3610  -20.3698 C.3         1 SY9       0.0233
     24 CAI       -48.9439   -0.0495  -19.7089 C.3         1 SY9       0.1466
     25 OAJ       -49.9767    0.9249  -19.5529 O.3         1 SY9      -0.3686
     26 H1        -45.5669   -2.2487  -15.5802 H           1 SY9       0.0728
     27 H2        -44.8986   -3.8868  -17.3120 H           1 SY9       0.0333
     28 H3        -45.0424   -2.2895  -18.0306 H           1 SY9       0.0333
     29 H4        -46.2110   -4.1459  -19.3543 H           1 SY9       0.0453
     30 H5        -46.7540   -1.8034  -19.5104 H           1 SY9       0.0364
     31 H6        -49.1668   -2.0168  -17.6621 H           1 SY9       0.0464
     32 H7        -47.6810    2.4051  -18.8554 H           1 SY9       0.0603
     33 H8        -46.0941    3.6177  -17.4796 H           1 SY9       0.0812
     34 H9        -45.0024    2.5150  -15.6110 H           1 SY9       0.0608
     35 H10       -45.4958    0.1925  -15.1062 H           1 SY9       0.0786
     36 H11       -49.2168   -1.0957  -15.4065 H           1 SY9       0.0203
     37 H12       -47.7436   -1.1149  -14.4111 H           1 SY9       0.0203
     38 H13       -49.2594   -3.4335  -15.5937 H           1 SY9       0.0805
     39 H14       -48.4709   -3.3121  -14.0097 H           1 SY9       0.0805
     40 H15       -46.5741   -3.9664  -14.7923 H           1 SY9       0.2039
     41 H16       -48.1104   -5.5479  -15.9454 H           1 SY9       0.0964
     42 H17       -46.4117   -5.5338  -16.3333 H           1 SY9       0.0964
     43 H18       -49.0622   -6.0354  -18.0105 H           1 SY9       0.0266
     44 H19       -49.7243   -5.7706  -20.1527 H           1 SY9       0.0635
     45 H20       -48.0964   -5.2426  -20.5544 H           1 SY9       0.0635
     46 H21       -48.0375   -2.8078  -21.1199 H           1 SY9       0.0604
     47 H22       -50.4673   -1.5573  -19.9214 H           1 SY9       0.0338
     48 H23       -49.6605   -1.1878  -21.4363 H           1 SY9       0.0338
     49 H24       -48.1893    0.3640  -20.3829 H           1 SY9       0.0886
     50 H25       -50.2037    1.2072  -20.4648 H           1 SY9       0.2123
@<TRIPOS>BOND
     1     1     2   1
     2     1    13   1
     3     1    16   1
     4     2     3   1
     5     3     4   1
     6     3    18   1
     7     4     5   1
     8     4    22   1
     9     5     6   1
    10     5    13   1
    11     6     7   1
    12     6    24   1
    13     7     8  ar
    14     7    12  ar
    15     8     9  ar
    16     9    10  ar
    17    10    11  ar
    18    11    12  ar
    19    12    13   1
    20    13    14   1
    21    14    15   1
    22    15    16   1
    23    16    17   1
    24    17    18   1
    25    18    19   2
    26    19    20   1
    27    20    21   1
    28    21    22   1
    29    22    23   1
    30    23    24   1
    31    24    25   1
    32     1    26   1
    33     2    27   1
    34     2    28   1
    35     3    29   1
    36     4    30   1
    37     5    31   1
    38     8    32   1
    39     9    33   1
    40    10    34   1
    41    11    35   1
    42    14    36   1
    43    14    37   1
    44    15    38   1
    45    15    39   1
    46    16    40   1
    47    17    41   1
    48    17    42   1
    49    19    43   1
    50    20    44   1
    51    20    45   1
    52    22    46   1
    53    23    47   1
    54    23    48   1
    55    24    49   1
    56    25    50   1
@<TRIPOS>SUBSTRUCTURE
     1  SY9      1

