@<TRIPOS>MOLECULE
2xys_ligand_039
    50    56
SMALL
GAST_HUCK
****
This file was generated by PARSER (from files_GN.cpp)

@<TRIPOS>ATOM
      1 CAV       -48.7018   -1.7196  -19.2612 C.3         1 SY9      -0.0392
      2 CAU       -49.2460   -2.8749  -20.1434 C.3         1 SY9      -0.0074
      3 CAT       -48.0281   -3.7916  -20.4976 C.3         1 SY9      -0.0009
      4 CAN       -47.6456   -4.5392  -19.1812 C.3         1 SY9       0.0127
      5 CAK       -47.2708   -3.5512  -18.0240 C.3         1 SY9       0.0377
      6 NAH       -47.5709   -4.2859  -16.8288 N.pl3       1 SY9      -0.2664
      7 CAA       -48.6093   -3.7193  -16.1757 C.ar        1 SY9       0.0752
      8 CAF       -49.3378   -4.1940  -15.0636 C.ar        1 SY9      -0.0107
      9 CAE       -50.4160   -3.4374  -14.5656 C.ar        1 SY9      -0.0448
     10 CAD       -50.7482   -2.2036  -15.1600 C.ar        1 SY9      -0.0454
     11 CAC       -50.0203   -1.7362  -16.2691 C.ar        1 SY9      -0.0502
     12 CAB       -48.9702   -2.5158  -16.7901 C.ar        1 SY9      -0.0229
     13 CAG       -48.0717   -2.2006  -17.9136 C.3         1 SY9       0.0241
     14 CAW       -47.1664   -0.9948  -17.5604 C.3         1 SY9      -0.0311
     15 CAX       -46.6176   -0.5476  -18.9246 C.3         1 SY9      -0.0400
     16 NAY       -47.6226   -0.9392  -19.9519 N.4         1 SY9       0.2407
     17 CAS       -47.0437   -1.5666  -21.1919 C.3         1 SY9      -0.0074
     18 CAR       -46.9030   -3.0297  -21.0799 C.2         1 SY9      -0.0310
     19 CAQ       -45.7756   -3.6374  -21.5023 C.2         1 SY9      -0.0782
     20 CAP       -45.5016   -5.0538  -21.3553 C.3         1 SY9       0.0552
     21 OAO       -45.3885   -5.4043  -19.9651 O.3         1 SY9      -0.3712
     22 CAM       -46.5896   -5.7042  -19.2158 C.3         1 SY9       0.0708
     23 CAL       -46.1306   -6.1162  -17.7617 C.3         1 SY9       0.0233
     24 CAI       -47.0669   -5.6241  -16.6087 C.3         1 SY9       0.1466
     25 OAJ       -46.4055   -5.6393  -15.3447 O.3         1 SY9      -0.3686
     26 H1        -49.5246   -1.0269  -19.0597 H           1 SY9       0.0728
     27 H2        -49.6930   -2.4692  -21.0551 H           1 SY9       0.0333
     28 H3        -50.0358   -3.4152  -19.6143 H           1 SY9       0.0333
     29 H4        -48.3775   -4.5241  -21.2320 H           1 SY9       0.0453
     30 H5        -48.5758   -5.0557  -18.8970 H           1 SY9       0.0364
     31 H6        -46.1957   -3.3421  -18.0701 H           1 SY9       0.0464
     32 H7        -49.0988   -5.0820  -14.6225 H           1 SY9       0.0603
     33 H8        -50.9560   -3.7786  -13.7687 H           1 SY9       0.0812
     34 H9        -51.5184   -1.6460  -14.7854 H           1 SY9       0.0608
     35 H10       -50.2523   -0.8362  -16.6859 H           1 SY9       0.0786
     36 H11       -46.3653   -1.2540  -16.8617 H           1 SY9       0.0203
     37 H12       -47.7504   -0.1772  -17.1261 H           1 SY9       0.0203
     38 H13       -45.6450   -1.0193  -19.0857 H           1 SY9       0.0805
     39 H14       -46.4827    0.5387  -18.9391 H           1 SY9       0.0805
     40 H15       -48.0518   -0.0675  -20.2608 H           1 SY9       0.2039
     41 H16       -46.1124   -1.0614  -21.4625 H           1 SY9       0.0964
     42 H17       -47.7358   -1.3634  -22.0118 H           1 SY9       0.0964
     43 H18       -45.0632   -3.0841  -21.9247 H           1 SY9       0.0266
     44 H19       -44.5360   -5.2750  -21.8149 H           1 SY9       0.0635
     45 H20       -46.2483   -5.6614  -21.8731 H           1 SY9       0.0635
     46 H21       -47.0584   -6.5792  -19.6832 H           1 SY9       0.0604
     47 H22       -45.1420   -5.6858  -17.5704 H           1 SY9       0.0338
     48 H23       -46.0178   -7.2010  -17.7007 H           1 SY9       0.0338
     49 H24       -47.9183   -6.3034  -16.5540 H           1 SY9       0.0886
     50 H25       -46.8151   -6.3845  -14.8516 H           1 SY9       0.2123
@<TRIPOS>BOND
     1     1     2   1
     2     1    13   1
     3     1    16   1
     4     2     3   1
     5     3     4   1
     6     3    18   1
     7     4     5   1
     8     4    22   1
     9     5     6   1
    10     5    13   1
    11     6     7   1
    12     6    24   1
    13     7     8  ar
    14     7    12  ar
    15     8     9  ar
    16     9    10  ar
    17    10    11  ar
    18    11    12  ar
    19    12    13   1
    20    13    14   1
    21    14    15   1
    22    15    16   1
    23    16    17   1
    24    17    18   1
    25    18    19   2
    26    19    20   1
    27    20    21   1
    28    21    22   1
    29    22    23   1
    30    23    24   1
    31    24    25   1
    32     1    26   1
    33     2    27   1
    34     2    28   1
    35     3    29   1
    36     4    30   1
    37     5    31   1
    38     8    32   1
    39     9    33   1
    40    10    34   1
    41    11    35   1
    42    14    36   1
    43    14    37   1
    44    15    38   1
    45    15    39   1
    46    16    40   1
    47    17    41   1
    48    17    42   1
    49    19    43   1
    50    20    44   1
    51    20    45   1
    52    22    46   1
    53    23    47   1
    54    23    48   1
    55    24    49   1
    56    25    50   1
@<TRIPOS>SUBSTRUCTURE
     1  SY9      1

