@<TRIPOS>MOLECULE
2xys_ligand_014
    50    56
SMALL
GAST_HUCK
****
This file was generated by PARSER (from files_GN.cpp)

@<TRIPOS>ATOM
      1 CAV       -48.7966   -2.2146  -19.1525 C.3         1 SY9      -0.0392
      2 CAU       -48.8991   -1.2723  -17.9206 C.3         1 SY9      -0.0074
      3 CAT       -49.4477   -2.1322  -16.7322 C.3         1 SY9      -0.0009
      4 CAN       -48.2916   -3.1129  -16.3581 C.3         1 SY9       0.0127
      5 CAK       -48.0326   -4.1229  -17.5274 C.3         1 SY9       0.0377
      6 NAH       -46.7725   -4.7293  -17.2408 N.pl3       1 SY9      -0.2664
      7 CAA       -45.8186   -4.2249  -18.0562 C.ar        1 SY9       0.0752
      8 CAF       -44.4214   -4.4087  -18.0362 C.ar        1 SY9      -0.0107
      9 CAE       -43.6196   -3.7243  -18.9700 C.ar        1 SY9      -0.0448
     10 CAD       -44.2109   -2.8719  -19.9237 C.ar        1 SY9      -0.0454
     11 CAC       -45.6084   -2.7037  -19.9571 C.ar        1 SY9      -0.0502
     12 CAB       -46.4061   -3.3796  -19.0128 C.ar        1 SY9      -0.0229
     13 CAG       -47.8805   -3.4652  -18.9438 C.3         1 SY9       0.0241
     14 CAW       -48.4046   -4.3818  -20.0793 C.3         1 SY9      -0.0311
     15 CAX       -49.9232   -4.1422  -20.0731 C.3         1 SY9      -0.0400
     16 NAY       -50.1428   -2.7754  -19.5187 N.4         1 SY9       0.2407
     17 CAS       -51.2171   -2.6881  -18.4629 C.3         1 SY9      -0.0074
     18 CAR       -50.7053   -2.8386  -17.0874 C.2         1 SY9      -0.0310
     19 CAQ       -51.3271   -3.6726  -16.2233 C.2         1 SY9      -0.0782
     20 CAP       -50.8641   -4.0106  -14.8923 C.3         1 SY9       0.0552
     21 OAO       -49.5992   -4.7074  -14.9253 O.3         1 SY9      -0.3712
     22 CAM       -48.4149   -3.8868  -15.0080 C.3         1 SY9       0.0708
     23 CAL       -47.1468   -4.7800  -14.7928 C.3         1 SY9       0.0233
     24 CAI       -46.6488   -5.5470  -16.0615 C.3         1 SY9       0.1466
     25 OAJ       -47.4234   -6.7285  -16.2822 O.3         1 SY9      -0.3686
     26 H1        -48.4334   -1.6273  -20.0014 H           1 SY9       0.0728
     27 H2        -49.5812   -0.4444  -18.1372 H           1 SY9       0.0333
     28 H3        -47.9268   -0.8272  -17.6949 H           1 SY9       0.0333
     29 H4        -49.6415   -1.4576  -15.8924 H           1 SY9       0.0453
     30 H5        -47.3918   -2.4979  -16.2289 H           1 SY9       0.0364
     31 H6        -48.8233   -4.8807  -17.5448 H           1 SY9       0.0464
     32 H7        -43.9858   -5.0309  -17.3559 H           1 SY9       0.0603
     33 H8        -42.6027   -3.8507  -18.9596 H           1 SY9       0.0812
     34 H9        -43.6220   -2.3846  -20.6033 H           1 SY9       0.0608
     35 H10       -46.0344   -2.1126  -20.6719 H           1 SY9       0.0786
     36 H11       -48.1621   -5.4365  -19.9184 H           1 SY9       0.0203
     37 H12       -47.9945   -4.0777  -21.0477 H           1 SY9       0.0203
     38 H13       -50.4035   -4.9216  -19.4729 H           1 SY9       0.0805
     39 H14       -50.3265   -4.1987  -21.0867 H           1 SY9       0.0805
     40 H15       -50.4833   -2.2076  -20.2977 H           1 SY9       0.2039
     41 H16       -51.6544   -1.6934  -18.5389 H           1 SY9       0.0964
     42 H17       -52.0336   -3.3798  -18.6955 H           1 SY9       0.0964
     43 H18       -52.1584   -4.1256  -16.5210 H           1 SY9       0.0266
     44 H19       -51.5777   -4.6940  -14.4263 H           1 SY9       0.0635
     45 H20       -50.8276   -3.1160  -14.2618 H           1 SY9       0.0635
     46 H21       -48.4415   -3.1647  -14.1833 H           1 SY9       0.0604
     47 H22       -47.3266   -5.4894  -13.9783 H           1 SY9       0.0338
     48 H23       -46.3389   -4.1272  -14.4681 H           1 SY9       0.0338
     49 H24       -45.6171   -5.8725  -15.9037 H           1 SY9       0.0886
     50 H25       -47.3544   -7.2431  -15.4460 H           1 SY9       0.2123
@<TRIPOS>BOND
     1     1     2   1
     2     1    13   1
     3     1    16   1
     4     2     3   1
     5     3     4   1
     6     3    18   1
     7     4     5   1
     8     4    22   1
     9     5     6   1
    10     5    13   1
    11     6     7   1
    12     6    24   1
    13     7     8  ar
    14     7    12  ar
    15     8     9  ar
    16     9    10  ar
    17    10    11  ar
    18    11    12  ar
    19    12    13   1
    20    13    14   1
    21    14    15   1
    22    15    16   1
    23    16    17   1
    24    17    18   1
    25    18    19   2
    26    19    20   1
    27    20    21   1
    28    21    22   1
    29    22    23   1
    30    23    24   1
    31    24    25   1
    32     1    26   1
    33     2    27   1
    34     2    28   1
    35     3    29   1
    36     4    30   1
    37     5    31   1
    38     8    32   1
    39     9    33   1
    40    10    34   1
    41    11    35   1
    42    14    36   1
    43    14    37   1
    44    15    38   1
    45    15    39   1
    46    16    40   1
    47    17    41   1
    48    17    42   1
    49    19    43   1
    50    20    44   1
    51    20    45   1
    52    22    46   1
    53    23    47   1
    54    23    48   1
    55    24    49   1
    56    25    50   1
@<TRIPOS>SUBSTRUCTURE
     1  SY9      1

