@<TRIPOS>MOLECULE
2xys_ligand_017
    50    56
SMALL
GAST_HUCK
****
This file was generated by PARSER (from files_GN.cpp)

@<TRIPOS>ATOM
      1 CAV       -46.6151   -2.0171  -19.8593 C.3         1 SY9      -0.0392
      2 CAU       -48.0352   -2.5346  -20.2134 C.3         1 SY9      -0.0074
      3 CAT       -47.9488   -4.0950  -20.2710 C.3         1 SY9      -0.0009
      4 CAN       -47.7722   -4.5784  -18.7959 C.3         1 SY9       0.0127
      5 CAK       -46.4842   -3.9924  -18.1208 C.3         1 SY9       0.0377
      6 NAH       -46.7758   -4.0092  -16.7159 N.pl3       1 SY9      -0.2664
      7 CAA       -46.8676   -2.7483  -16.2398 C.ar        1 SY9       0.0752
      8 CAF       -47.2716   -2.3030  -14.9630 C.ar        1 SY9      -0.0107
      9 CAE       -47.3360   -0.9205  -14.6998 C.ar        1 SY9      -0.0448
     10 CAD       -47.0003    0.0094  -15.7041 C.ar        1 SY9      -0.0454
     11 CAC       -46.5974   -0.4375  -16.9777 C.ar        1 SY9      -0.0502
     12 CAB       -46.5460   -1.8224  -17.2412 C.ar        1 SY9      -0.0229
     13 CAG       -46.0935   -2.5070  -18.4690 C.3         1 SY9       0.0241
     14 CAW       -44.5664   -2.3190  -18.6598 C.3         1 SY9      -0.0311
     15 CAX       -44.3306   -2.7684  -20.1103 C.3         1 SY9      -0.0400
     16 NAY       -45.5865   -2.4689  -20.8564 N.4         1 SY9       0.2407
     17 CAS       -46.0134   -3.5524  -21.8102 C.3         1 SY9      -0.0074
     18 CAR       -46.8758   -4.5640  -21.1753 C.2         1 SY9      -0.0310
     19 CAQ       -46.6759   -5.8756  -21.4193 C.2         1 SY9      -0.0782
     20 CAP       -47.3960   -6.9503  -20.7655 C.3         1 SY9       0.0552
     21 OAO       -47.0996   -6.9633  -19.3601 O.3         1 SY9      -0.3712
     22 CAM       -47.8637   -6.1131  -18.4752 C.3         1 SY9       0.0708
     23 CAL       -47.3668   -6.4346  -17.0152 C.3         1 SY9       0.0233
     24 CAI       -47.2666   -5.2025  -16.0562 C.3         1 SY9       0.1466
     25 OAJ       -46.4295   -5.5078  -14.9448 O.3         1 SY9      -0.3686
     26 H1        -46.6368   -0.9230  -19.8822 H           1 SY9       0.0728
     27 H2        -48.3465   -2.1352  -21.1828 H           1 SY9       0.0333
     28 H3        -48.7637   -2.1846  -19.4764 H           1 SY9       0.0333
     29 H4        -48.9105   -4.4561  -20.6492 H           1 SY9       0.0453
     30 H5        -48.6431   -4.1563  -18.2738 H           1 SY9       0.0364
     31 H6        -45.6394   -4.6583  -18.3272 H           1 SY9       0.0464
     32 H7        -47.5194   -2.9711  -14.2308 H           1 SY9       0.0603
     33 H8        -47.6274   -0.5906  -13.7768 H           1 SY9       0.0812
     34 H9        -47.0435    1.0114  -15.5059 H           1 SY9       0.0608
     35 H10       -46.3387    0.2404  -17.6971 H           1 SY9       0.0786
     36 H11       -43.9733   -2.9042  -17.9511 H           1 SY9       0.0203
     37 H12       -44.2835   -1.2656  -18.5604 H           1 SY9       0.0203
     38 H13       -44.0856   -3.8357  -20.1160 H           1 SY9       0.0805
     39 H14       -43.4931   -2.2246  -20.5519 H           1 SY9       0.0805
     40 H15       -45.3760   -1.6572  -21.4428 H           1 SY9       0.2039
     41 H16       -45.1370   -3.9854  -22.3039 H           1 SY9       0.0964
     42 H17       -46.5957   -3.0789  -22.6041 H           1 SY9       0.0964
     43 H18       -45.9673   -6.1409  -22.0657 H           1 SY9       0.0266
     44 H19       -47.0520   -7.9058  -21.1684 H           1 SY9       0.0635
     45 H20       -48.4695   -6.8864  -20.9626 H           1 SY9       0.0635
     46 H21       -48.9149   -6.4138  -18.5485 H           1 SY9       0.0604
     47 H22       -46.3650   -6.8721  -17.0716 H           1 SY9       0.0338
     48 H23       -48.0134   -7.1915  -16.5650 H           1 SY9       0.0338
     49 H24       -48.2719   -4.9994  -15.6751 H           1 SY9       0.0886
     50 H25       -46.8764   -6.2464  -14.4811 H           1 SY9       0.2123
@<TRIPOS>BOND
     1     1     2   1
     2     1    13   1
     3     1    16   1
     4     2     3   1
     5     3     4   1
     6     3    18   1
     7     4     5   1
     8     4    22   1
     9     5     6   1
    10     5    13   1
    11     6     7   1
    12     6    24   1
    13     7     8  ar
    14     7    12  ar
    15     8     9  ar
    16     9    10  ar
    17    10    11  ar
    18    11    12  ar
    19    12    13   1
    20    13    14   1
    21    14    15   1
    22    15    16   1
    23    16    17   1
    24    17    18   1
    25    18    19   2
    26    19    20   1
    27    20    21   1
    28    21    22   1
    29    22    23   1
    30    23    24   1
    31    24    25   1
    32     1    26   1
    33     2    27   1
    34     2    28   1
    35     3    29   1
    36     4    30   1
    37     5    31   1
    38     8    32   1
    39     9    33   1
    40    10    34   1
    41    11    35   1
    42    14    36   1
    43    14    37   1
    44    15    38   1
    45    15    39   1
    46    16    40   1
    47    17    41   1
    48    17    42   1
    49    19    43   1
    50    20    44   1
    51    20    45   1
    52    22    46   1
    53    23    47   1
    54    23    48   1
    55    24    49   1
    56    25    50   1
@<TRIPOS>SUBSTRUCTURE
     1  SY9      1

