@<TRIPOS>MOLECULE
2xys_ligand_023
    50    56
SMALL
GAST_HUCK
****
This file was generated by PARSER (from files_GN.cpp)

@<TRIPOS>ATOM
      1 CAV       -33.7248    0.0967  -15.1685 C.3         1 SY9      -0.0392
      2 CAU       -34.2613    0.0241  -13.7130 C.3         1 SY9      -0.0074
      3 CAT       -34.1590    1.4692  -13.1167 C.3         1 SY9      -0.0009
      4 CAN       -35.2551    2.2924  -13.8652 C.3         1 SY9       0.0127
      5 CAK       -34.8971    2.4400  -15.3820 C.3         1 SY9       0.0377
      6 NAH       -36.0959    2.8851  -16.0175 N.pl3       1 SY9      -0.2664
      7 CAA       -36.6611    1.8614  -16.6952 C.ar        1 SY9       0.0752
      8 CAF       -37.9211    1.7771  -17.3207 C.ar        1 SY9      -0.0107
      9 CAE       -38.3040    0.5771  -17.9518 C.ar        1 SY9      -0.0448
     10 CAD       -37.4325   -0.5318  -17.9566 C.ar        1 SY9      -0.0454
     11 CAC       -36.1696   -0.4441  -17.3389 C.ar        1 SY9      -0.0502
     12 CAB       -35.7966    0.7541  -16.6989 C.ar        1 SY9      -0.0229
     13 CAG       -34.4926    1.1015  -16.0948 C.3         1 SY9       0.0241
     14 CAW       -33.4330    1.3165  -17.2042 C.3         1 SY9      -0.0311
     15 CAX       -32.1006    1.3532  -16.4341 C.3         1 SY9      -0.0400
     16 NAY       -32.2920    0.5526  -15.1937 N.4         1 SY9       0.2407
     17 CAS       -31.7802    1.2100  -13.9359 C.3         1 SY9      -0.0074
     18 CAR       -32.7979    2.0423  -13.2670 C.2         1 SY9      -0.0310
     19 CAQ       -32.5002    3.3055  -12.8961 C.2         1 SY9      -0.0782
     20 CAP       -33.4380    4.2640  -12.3343 C.3         1 SY9       0.0552
     21 OAO       -34.5061    4.5994  -13.2452 O.3         1 SY9      -0.3712
     22 CAM       -35.6264    3.6872  -13.2761 C.3         1 SY9       0.0708
     23 CAL       -36.7988    4.2996  -14.1124 C.3         1 SY9       0.0233
     24 CAI       -36.6379    4.1774  -15.6587 C.3         1 SY9       0.1466
     25 OAJ       -35.7666    5.2097  -16.1238 O.3         1 SY9      -0.3686
     26 H1        -33.7676   -0.9082  -15.5994 H           1 SY9       0.0728
     27 H2        -33.6625   -0.6770  -13.1226 H           1 SY9       0.0333
     28 H3        -35.2849   -0.3556  -13.7111 H           1 SY9       0.0333
     29 H4        -34.4097    1.4122  -12.0527 H           1 SY9       0.0453
     30 H5        -36.1875    1.7169  -13.7806 H           1 SY9       0.0364
     31 H6        -34.1083    3.1888  -15.5064 H           1 SY9       0.0464
     32 H7        -38.5619    2.5712  -17.3202 H           1 SY9       0.0603
     33 H8        -39.2151    0.5087  -18.4082 H           1 SY9       0.0812
     34 H9        -37.7136   -1.3988  -18.4211 H           1 SY9       0.0608
     35 H10       -35.5273   -1.2381  -17.3704 H           1 SY9       0.0786
     36 H11       -33.6009    2.2336  -17.7757 H           1 SY9       0.0203
     37 H12       -33.4202    0.4729  -17.9027 H           1 SY9       0.0203
     38 H13       -31.8407    2.3937  -16.2171 H           1 SY9       0.0805
     39 H14       -31.2967    0.9214  -17.0351 H           1 SY9       0.0805
     40 H15       -31.7272   -0.2923  -15.3107 H           1 SY9       0.2039
     41 H16       -31.5030    0.4148  -13.2405 H           1 SY9       0.0964
     42 H17       -30.8514    1.7497  -14.1455 H           1 SY9       0.0964
     43 H18       -31.5708    3.6317  -13.0329 H           1 SY9       0.0266
     44 H19       -32.9063    5.1974  -12.1292 H           1 SY9       0.0635
     45 H20       -33.8194    3.8987  -11.3756 H           1 SY9       0.0635
     46 H21       -36.0015    3.5576  -12.2536 H           1 SY9       0.0604
     47 H22       -36.9359    5.3500  -13.8373 H           1 SY9       0.0338
     48 H23       -37.7176    3.7747  -13.8388 H           1 SY9       0.0338
     49 H24       -37.6123    4.3490  -16.1249 H           1 SY9       0.0886
     50 H25       -35.8610    5.2169  -17.1027 H           1 SY9       0.2123
@<TRIPOS>BOND
     1     1     2   1
     2     1    13   1
     3     1    16   1
     4     2     3   1
     5     3     4   1
     6     3    18   1
     7     4     5   1
     8     4    22   1
     9     5     6   1
    10     5    13   1
    11     6     7   1
    12     6    24   1
    13     7     8  ar
    14     7    12  ar
    15     8     9  ar
    16     9    10  ar
    17    10    11  ar
    18    11    12  ar
    19    12    13   1
    20    13    14   1
    21    14    15   1
    22    15    16   1
    23    16    17   1
    24    17    18   1
    25    18    19   2
    26    19    20   1
    27    20    21   1
    28    21    22   1
    29    22    23   1
    30    23    24   1
    31    24    25   1
    32     1    26   1
    33     2    27   1
    34     2    28   1
    35     3    29   1
    36     4    30   1
    37     5    31   1
    38     8    32   1
    39     9    33   1
    40    10    34   1
    41    11    35   1
    42    14    36   1
    43    14    37   1
    44    15    38   1
    45    15    39   1
    46    16    40   1
    47    17    41   1
    48    17    42   1
    49    19    43   1
    50    20    44   1
    51    20    45   1
    52    22    46   1
    53    23    47   1
    54    23    48   1
    55    24    49   1
    56    25    50   1
@<TRIPOS>SUBSTRUCTURE
     1  SY9      1

