@<TRIPOS>MOLECULE
2xys_ligand_036
    50    56
SMALL
GAST_HUCK
****
This file was generated by PARSER (from files_GN.cpp)

@<TRIPOS>ATOM
      1 CAV       -35.8904    0.2546  -21.0444 C.3         1 SY9      -0.0392
      2 CAU       -37.1536   -0.1885  -20.2556 C.3         1 SY9      -0.0074
      3 CAT       -37.4789   -1.6508  -20.7106 C.3         1 SY9      -0.0009
      4 CAN       -36.3407   -2.5357  -20.1103 C.3         1 SY9       0.0127
      5 CAK       -34.9652   -2.1912  -20.7749 C.3         1 SY9       0.0377
      6 NAH       -33.9746   -2.7878  -19.9373 N.pl3       1 SY9      -0.2664
      7 CAA       -33.3694   -1.8311  -19.1969 C.ar        1 SY9       0.0752
      8 CAF       -32.4685   -1.9556  -18.1181 C.ar        1 SY9      -0.0107
      9 CAE       -32.0003   -0.7962  -17.4687 C.ar        1 SY9      -0.0448
     10 CAD       -32.4271    0.4779  -17.8928 C.ar        1 SY9      -0.0454
     11 CAC       -33.3215    0.6020  -18.9734 C.ar        1 SY9      -0.0502
     12 CAB       -33.7946   -0.5592  -19.6162 C.ar        1 SY9      -0.0229
     13 CAG       -34.6325   -0.6576  -20.8292 C.3         1 SY9       0.0241
     14 CAW       -33.8007   -0.2751  -22.0803 C.3         1 SY9      -0.0311
     15 CAX       -34.8544   -0.1290  -23.1918 C.3         1 SY9      -0.0400
     16 NAY       -36.1386    0.2353  -22.5287 N.4         1 SY9       0.2407
     17 CAS       -37.3359   -0.5565  -22.9911 C.3         1 SY9      -0.0074
     18 CAR       -37.5840   -1.7688  -22.1859 C.2         1 SY9      -0.0310
     19 CAQ       -37.8077   -2.9504  -22.8013 C.2         1 SY9      -0.0782
     20 CAP       -37.9408   -4.2345  -22.1361 C.3         1 SY9       0.0552
     21 OAO       -36.7361   -4.6212  -21.4400 O.3         1 SY9      -0.3712
     22 CAM       -36.5596   -4.0794  -20.1142 C.3         1 SY9       0.0708
     23 CAL       -35.3544   -4.7739  -19.3957 C.3         1 SY9       0.0233
     24 CAI       -33.9464   -4.2267  -19.7942 C.3         1 SY9       0.1466
     25 OAJ       -33.5016   -4.8288  -21.0104 O.3         1 SY9      -0.3686
     26 H1        -35.6556    1.2839  -20.7563 H           1 SY9       0.0728
     27 H2        -37.9924    0.4750  -20.4850 H           1 SY9       0.0333
     28 H3        -36.9772   -0.1134  -19.1790 H           1 SY9       0.0333
     29 H4        -38.4303   -1.9384  -20.2557 H           1 SY9       0.0453
     30 H5        -36.2811   -2.2792  -19.0443 H           1 SY9       0.0364
     31 H6        -34.9206   -2.6228  -21.7798 H           1 SY9       0.0464
     32 H7        -32.1551   -2.8722  -17.7966 H           1 SY9       0.0603
     33 H8        -31.3471   -0.8793  -16.6864 H           1 SY9       0.0812
     34 H9        -32.0779    1.3154  -17.4219 H           1 SY9       0.0608
     35 H10       -33.6115    1.5268  -19.2905 H           1 SY9       0.0786
     36 H11       -33.0466   -1.0261  -22.3344 H           1 SY9       0.0203
     37 H12       -33.2969    0.6863  -21.9339 H           1 SY9       0.0203
     38 H13       -34.9203   -1.0713  -23.7452 H           1 SY9       0.0805
     39 H14       -34.5658    0.6564  -23.8944 H           1 SY9       0.0805
     40 H15       -36.3380    1.1994  -22.8084 H           1 SY9       0.2039
     41 H16       -38.2100    0.0886  -22.8822 H           1 SY9       0.0964
     42 H17       -37.2601   -0.7598  -24.0641 H           1 SY9       0.0964
     43 H18       -37.8653   -2.9638  -23.7948 H           1 SY9       0.0266
     44 H19       -38.1188   -5.0042  -22.8908 H           1 SY9       0.0635
     45 H20       -38.8161   -4.2294  -21.4795 H           1 SY9       0.0635
     46 H21       -37.4524   -4.3120  -19.5237 H           1 SY9       0.0604
     47 H22       -35.3952   -5.8525  -19.5700 H           1 SY9       0.0338
     48 H23       -35.4733   -4.6199  -18.3186 H           1 SY9       0.0338
     49 H24       -33.2316   -4.5329  -19.0292 H           1 SY9       0.0886
     50 H25       -34.2466   -4.7475  -21.6411 H           1 SY9       0.2123
@<TRIPOS>BOND
     1     1     2   1
     2     1    13   1
     3     1    16   1
     4     2     3   1
     5     3     4   1
     6     3    18   1
     7     4     5   1
     8     4    22   1
     9     5     6   1
    10     5    13   1
    11     6     7   1
    12     6    24   1
    13     7     8  ar
    14     7    12  ar
    15     8     9  ar
    16     9    10  ar
    17    10    11  ar
    18    11    12  ar
    19    12    13   1
    20    13    14   1
    21    14    15   1
    22    15    16   1
    23    16    17   1
    24    17    18   1
    25    18    19   2
    26    19    20   1
    27    20    21   1
    28    21    22   1
    29    22    23   1
    30    23    24   1
    31    24    25   1
    32     1    26   1
    33     2    27   1
    34     2    28   1
    35     3    29   1
    36     4    30   1
    37     5    31   1
    38     8    32   1
    39     9    33   1
    40    10    34   1
    41    11    35   1
    42    14    36   1
    43    14    37   1
    44    15    38   1
    45    15    39   1
    46    16    40   1
    47    17    41   1
    48    17    42   1
    49    19    43   1
    50    20    44   1
    51    20    45   1
    52    22    46   1
    53    23    47   1
    54    23    48   1
    55    24    49   1
    56    25    50   1
@<TRIPOS>SUBSTRUCTURE
     1  SY9      1

