@<TRIPOS>MOLECULE
2xys_ligand_064
    50    56
SMALL
GAST_HUCK
****
This file was generated by PARSER (from files_GN.cpp)

@<TRIPOS>ATOM
      1 CAV       -35.1364    2.7222  -14.2612 C.3         1 SY9      -0.0392
      2 CAU       -35.9705    1.4688  -14.6386 C.3         1 SY9      -0.0074
      3 CAT       -35.3978    0.9289  -15.9920 C.3         1 SY9      -0.0009
      4 CAN       -33.9998    0.3102  -15.6630 C.3         1 SY9       0.0127
      5 CAK       -33.0134    1.3640  -15.0518 C.3         1 SY9       0.0377
      6 NAH       -32.0872    0.5774  -14.2853 N.pl3       1 SY9      -0.2664
      7 CAA       -32.2468    0.8259  -12.9667 C.ar        1 SY9       0.0752
      8 CAF       -31.6647    0.1797  -11.8572 C.ar        1 SY9      -0.0107
      9 CAE       -32.0052    0.6007  -10.5548 C.ar        1 SY9      -0.0448
     10 CAD       -32.9276    1.6496  -10.3678 C.ar        1 SY9      -0.0454
     11 CAC       -33.5184    2.2853  -11.4759 C.ar        1 SY9      -0.0502
     12 CAB       -33.1760    1.8549  -12.7733 C.ar        1 SY9      -0.0229
     13 CAG       -33.6150    2.4259  -14.0560 C.3         1 SY9       0.0241
     14 CAW       -33.0159    3.8445  -14.2398 C.3         1 SY9      -0.0311
     15 CAX       -33.8482    4.4320  -15.3874 C.3         1 SY9      -0.0400
     16 NAY       -35.1879    3.7827  -15.3217 N.4         1 SY9       0.2407
     17 CAS       -35.7251    3.3503  -16.6580 C.3         1 SY9      -0.0074
     18 CAR       -35.3343    1.9802  -17.0321 C.2         1 SY9      -0.0310
     19 CAQ       -34.9179    1.7120  -18.2887 C.2         1 SY9      -0.0782
     20 CAP       -34.4273    0.4229  -18.7308 C.3         1 SY9       0.0552
     21 OAO       -33.1944    0.1049  -18.0679 O.3         1 SY9      -0.3712
     22 CAM       -33.2402   -0.5152  -16.7642 C.3         1 SY9       0.0708
     23 CAL       -31.7407   -0.7893  -16.3634 C.3         1 SY9       0.0233
     24 CAI       -31.4065   -0.5695  -14.8524 C.3         1 SY9       0.1466
     25 OAJ       -29.9965   -0.4394  -14.6673 O.3         1 SY9      -0.3686
     26 H1        -35.5627    3.1502  -13.3476 H           1 SY9       0.0728
     27 H2        -37.0225    1.7443  -14.7550 H           1 SY9       0.0333
     28 H3        -35.9237    0.7226  -13.8389 H           1 SY9       0.0333
     29 H4        -36.0692    0.1320  -16.3304 H           1 SY9       0.0453
     30 H5        -34.2196   -0.4390  -14.8872 H           1 SY9       0.0364
     31 H6        -32.4834    1.8750  -15.8632 H           1 SY9       0.0464
     32 H7        -31.0001   -0.5841  -11.9891 H           1 SY9       0.0603
     33 H8        -31.5804    0.1452   -9.7446 H           1 SY9       0.0812
     34 H9        -33.1653    1.9588   -9.4245 H           1 SY9       0.0608
     35 H10       -34.1744    3.0592  -11.3380 H           1 SY9       0.0786
     36 H11       -31.9491    3.8290  -14.4785 H           1 SY9       0.0203
     37 H12       -33.1600    4.4568  -13.3421 H           1 SY9       0.0203
     38 H13       -33.3335    4.2327  -16.3312 H           1 SY9       0.0805
     39 H14       -33.9520    5.5147  -15.2748 H           1 SY9       0.0805
     40 H15       -35.8363    4.4981  -14.9785 H           1 SY9       0.2039
     41 H16       -35.4546    4.0899  -17.4159 H           1 SY9       0.0964
     42 H17       -36.8158    3.3750  -16.5964 H           1 SY9       0.0964
     43 H18       -34.9000    2.4470  -18.9592 H           1 SY9       0.0266
     44 H19       -34.2010    0.4779  -19.7973 H           1 SY9       0.0635
     45 H20       -35.1795   -0.3606  -18.6035 H           1 SY9       0.0635
     46 H21       -33.7458   -1.4814  -16.8733 H           1 SY9       0.0604
     47 H22       -31.0939   -0.1125  -16.9309 H           1 SY9       0.0338
     48 H23       -31.4636   -1.8069  -16.6512 H           1 SY9       0.0338
     49 H24       -31.7315   -1.4650  -14.3140 H           1 SY9       0.0886
     50 H25       -29.7443    0.3762  -15.1504 H           1 SY9       0.2123
@<TRIPOS>BOND
     1     1     2   1
     2     1    13   1
     3     1    16   1
     4     2     3   1
     5     3     4   1
     6     3    18   1
     7     4     5   1
     8     4    22   1
     9     5     6   1
    10     5    13   1
    11     6     7   1
    12     6    24   1
    13     7     8  ar
    14     7    12  ar
    15     8     9  ar
    16     9    10  ar
    17    10    11  ar
    18    11    12  ar
    19    12    13   1
    20    13    14   1
    21    14    15   1
    22    15    16   1
    23    16    17   1
    24    17    18   1
    25    18    19   2
    26    19    20   1
    27    20    21   1
    28    21    22   1
    29    22    23   1
    30    23    24   1
    31    24    25   1
    32     1    26   1
    33     2    27   1
    34     2    28   1
    35     3    29   1
    36     4    30   1
    37     5    31   1
    38     8    32   1
    39     9    33   1
    40    10    34   1
    41    11    35   1
    42    14    36   1
    43    14    37   1
    44    15    38   1
    45    15    39   1
    46    16    40   1
    47    17    41   1
    48    17    42   1
    49    19    43   1
    50    20    44   1
    51    20    45   1
    52    22    46   1
    53    23    47   1
    54    23    48   1
    55    24    49   1
    56    25    50   1
@<TRIPOS>SUBSTRUCTURE
     1  SY9      1

