@<TRIPOS>MOLECULE
2xys_ligand_016
    50    56
SMALL
GAST_HUCK
****
This file was generated by PARSER (from files_GN.cpp)

@<TRIPOS>ATOM
      1 CAV       -33.3229    2.9694  -12.5975 C.3         1 SY9      -0.0392
      2 CAU       -34.1208    1.6877  -12.9679 C.3         1 SY9      -0.0074
      3 CAT       -34.2390    1.6655  -14.5283 C.3         1 SY9      -0.0009
      4 CAN       -32.7961    1.3522  -15.0391 C.3         1 SY9       0.0127
      5 CAK       -31.8257    2.5365  -14.7099 C.3         1 SY9       0.0377
      6 NAH       -30.5072    2.0162  -14.8924 N.pl3       1 SY9      -0.2664
      7 CAA       -29.9341    1.7945  -13.6888 C.ar        1 SY9       0.0752
      8 CAF       -28.7281    1.1373  -13.3678 C.ar        1 SY9      -0.0107
      9 CAE       -28.3546    0.9967  -12.0138 C.ar        1 SY9      -0.0448
     10 CAD       -29.1765    1.5108  -10.9936 C.ar        1 SY9      -0.0454
     11 CAC       -30.3771    2.1742  -11.3146 C.ar        1 SY9      -0.0502
     12 CAB       -30.7534    2.3047  -12.6669 C.ar        1 SY9      -0.0229
     13 CAG       -31.8921    3.0558  -13.2326 C.3         1 SY9       0.0241
     14 CAW       -31.6264    4.5815  -13.1412 C.3         1 SY9      -0.0311
     15 CAX       -32.9957    5.2148  -13.4356 C.3         1 SY9      -0.0400
     16 NAY       -34.0335    4.2100  -13.0649 N.4         1 SY9       0.2407
     17 CAS       -35.1103    4.0055  -14.1004 C.3         1 SY9      -0.0074
     18 CAR       -34.7867    2.9387  -15.0685 C.2         1 SY9      -0.0310
     19 CAQ       -34.9137    3.1687  -16.3936 C.2         1 SY9      -0.0782
     20 CAP       -34.5027    2.2591  -17.4481 C.3         1 SY9       0.0552
     21 OAO       -33.0838    2.0033  -17.4183 O.3         1 SY9      -0.3712
     22 CAM       -32.6381    0.9545  -16.5355 C.3         1 SY9       0.0708
     23 CAL       -31.1400    0.6031  -16.8224 C.3         1 SY9       0.0233
     24 CAI       -30.1008    1.5954  -16.2127 C.3         1 SY9       0.1466
     25 OAJ       -29.9796    2.7431  -17.0535 O.3         1 SY9      -0.3686
     26 H1        -33.2478    3.0176  -11.5090 H           1 SY9       0.0728
     27 H2        -35.1162    1.7190  -12.5174 H           1 SY9       0.0333
     28 H3        -33.6246    0.7980  -12.5693 H           1 SY9       0.0333
     29 H4        -34.9067    0.8429  -14.8055 H           1 SY9       0.0453
     30 H5        -32.4579    0.4605  -14.4909 H           1 SY9       0.0364
     31 H6        -32.0020    3.3646  -15.4077 H           1 SY9       0.0464
     32 H7        -28.1266    0.7560  -14.0979 H           1 SY9       0.0603
     33 H8        -27.4831    0.5181  -11.7750 H           1 SY9       0.0812
     34 H9        -28.8965    1.4113  -10.0138 H           1 SY9       0.0608
     35 H10       -30.9583    2.5628  -10.5701 H           1 SY9       0.0786
     36 H11       -30.8636    4.9241  -13.8475 H           1 SY9       0.0203
     37 H12       -31.3108    4.8629  -12.1325 H           1 SY9       0.0203
     38 H13       -33.0381    5.4927  -14.4931 H           1 SY9       0.0805
     39 H14       -33.1292    6.1224  -12.8400 H           1 SY9       0.0805
     40 H15       -34.5134    4.5872  -12.2446 H           1 SY9       0.2039
     41 H16       -36.0187    3.7016  -13.5727 H           1 SY9       0.0964
     42 H17       -35.3604    4.9589  -14.5789 H           1 SY9       0.0964
     43 H18       -35.2877    4.0408  -16.6887 H           1 SY9       0.0266
     44 H19       -34.7086    2.7261  -18.4143 H           1 SY9       0.0635
     45 H20       -35.0953    1.3416  -17.4097 H           1 SY9       0.0635
     46 H21       -33.2212    0.0467  -16.7330 H           1 SY9       0.0604
     47 H22       -30.9821    0.5217  -17.9016 H           1 SY9       0.0338
     48 H23       -30.9387   -0.3837  -16.3958 H           1 SY9       0.0338
     49 H24       -29.1216    1.1126  -16.1942 H           1 SY9       0.0886
     50 H25       -29.2873    3.2996  -16.6379 H           1 SY9       0.2123
@<TRIPOS>BOND
     1     1     2   1
     2     1    13   1
     3     1    16   1
     4     2     3   1
     5     3     4   1
     6     3    18   1
     7     4     5   1
     8     4    22   1
     9     5     6   1
    10     5    13   1
    11     6     7   1
    12     6    24   1
    13     7     8  ar
    14     7    12  ar
    15     8     9  ar
    16     9    10  ar
    17    10    11  ar
    18    11    12  ar
    19    12    13   1
    20    13    14   1
    21    14    15   1
    22    15    16   1
    23    16    17   1
    24    17    18   1
    25    18    19   2
    26    19    20   1
    27    20    21   1
    28    21    22   1
    29    22    23   1
    30    23    24   1
    31    24    25   1
    32     1    26   1
    33     2    27   1
    34     2    28   1
    35     3    29   1
    36     4    30   1
    37     5    31   1
    38     8    32   1
    39     9    33   1
    40    10    34   1
    41    11    35   1
    42    14    36   1
    43    14    37   1
    44    15    38   1
    45    15    39   1
    46    16    40   1
    47    17    41   1
    48    17    42   1
    49    19    43   1
    50    20    44   1
    51    20    45   1
    52    22    46   1
    53    23    47   1
    54    23    48   1
    55    24    49   1
    56    25    50   1
@<TRIPOS>SUBSTRUCTURE
     1  SY9      1

