@<TRIPOS>MOLECULE
2xys_ligand_011
    50    56
SMALL
GAST_HUCK
****
This file was generated by PARSER (from files_GN.cpp)

@<TRIPOS>ATOM
      1 CAV       -40.2214    6.4706  -17.2932 C.3         1 SY9      -0.0392
      2 CAU       -41.2010    6.1273  -18.4459 C.3         1 SY9      -0.0074
      3 CAT       -42.6303    6.5214  -17.9494 C.3         1 SY9      -0.0009
      4 CAN       -42.6730    8.0787  -17.9198 C.3         1 SY9       0.0127
      5 CAK       -41.5944    8.7052  -16.9703 C.3         1 SY9       0.0377
      6 NAH       -41.3618   10.0265  -17.5044 N.pl3       1 SY9      -0.2664
      7 CAA       -40.1020   10.1092  -17.9983 C.ar        1 SY9       0.0752
      8 CAF       -39.4970   11.1553  -18.7247 C.ar        1 SY9      -0.0107
      9 CAE       -38.1855   10.9946  -19.2116 C.ar        1 SY9      -0.0448
     10 CAD       -37.4816    9.7949  -18.9801 C.ar        1 SY9      -0.0454
     11 CAC       -38.0874    8.7521  -18.2536 C.ar        1 SY9      -0.0502
     12 CAB       -39.3995    8.9173  -17.7633 C.ar        1 SY9      -0.0229
     13 CAG       -40.1907    7.9894  -16.9254 C.3         1 SY9       0.0241
     14 CAW       -39.6014    7.9130  -15.4913 C.3         1 SY9      -0.0311
     15 CAX       -40.2983    6.6840  -14.8856 C.3         1 SY9      -0.0400
     16 NAY       -40.5727    5.7533  -16.0178 N.4         1 SY9       0.2407
     17 CAS       -41.9283    5.1034  -15.9758 C.3         1 SY9      -0.0074
     18 CAR       -42.9648    5.9034  -16.6485 C.2         1 SY9      -0.0310
     19 CAQ       -44.1782    6.0620  -16.0784 C.2         1 SY9      -0.0782
     20 CAP       -45.2328    6.9015  -16.6141 C.3         1 SY9       0.0552
     21 OAO       -44.8312    8.2830  -16.6061 O.3         1 SY9      -0.3712
     22 CAM       -44.0477    8.7966  -17.7050 C.3         1 SY9       0.0708
     23 CAL       -43.8601   10.3379  -17.4468 C.3         1 SY9       0.0233
     24 CAI       -42.4591   10.9256  -17.8222 C.3         1 SY9       0.1466
     25 OAJ       -42.2735   12.1804  -17.1668 O.3         1 SY9      -0.3686
     26 H1        -39.2214    6.1378  -17.5916 H           1 SY9       0.0728
     27 H2        -41.1569    5.0569  -18.6710 H           1 SY9       0.0333
     28 H3        -40.9184    6.6550  -19.3576 H           1 SY9       0.0333
     29 H4        -43.3407    6.1655  -18.7008 H           1 SY9       0.0453
     30 H5        -42.4026    8.3657  -18.9512 H           1 SY9       0.0364
     31 H6        -42.0074    8.7907  -15.9623 H           1 SY9       0.0464
     32 H7        -39.9984   12.0195  -18.9194 H           1 SY9       0.0603
     33 H8        -37.7463   11.7506  -19.7375 H           1 SY9       0.0812
     34 H9        -36.5317    9.6876  -19.3368 H           1 SY9       0.0608
     35 H10       -37.5751    7.8868  -18.0851 H           1 SY9       0.0786
     36 H11       -39.7864    8.8181  -14.9028 H           1 SY9       0.0203
     37 H12       -38.5201    7.7345  -15.5169 H           1 SY9       0.0203
     38 H13       -41.2143    7.0077  -14.3806 H           1 SY9       0.0805
     39 H14       -39.6565    6.1969  -14.1479 H           1 SY9       0.0805
     40 H15       -39.8983    4.9907  -15.9247 H           1 SY9       0.2039
     41 H16       -42.1861    4.8424  -14.9428 H           1 SY9       0.0964
     42 H17       -41.8531    4.1517  -16.5084 H           1 SY9       0.0964
     43 H18       -44.3714    5.5954  -15.2180 H           1 SY9       0.0266
     44 H19       -46.1110    6.8241  -15.9677 H           1 SY9       0.0635
     45 H20       -45.5366    6.5673  -17.6107 H           1 SY9       0.0635
     46 H21       -44.6391    8.6770  -18.6191 H           1 SY9       0.0604
     47 H22       -44.0168   10.5310  -16.3805 H           1 SY9       0.0338
     48 H23       -44.6385   10.8961  -17.9712 H           1 SY9       0.0338
     49 H24       -42.4670   11.1008  -18.8977 H           1 SY9       0.0886
     50 H25       -41.6189   12.6730  -17.7129 H           1 SY9       0.2123
@<TRIPOS>BOND
     1     1     2   1
     2     1    13   1
     3     1    16   1
     4     2     3   1
     5     3     4   1
     6     3    18   1
     7     4     5   1
     8     4    22   1
     9     5     6   1
    10     5    13   1
    11     6     7   1
    12     6    24   1
    13     7     8  ar
    14     7    12  ar
    15     8     9  ar
    16     9    10  ar
    17    10    11  ar
    18    11    12  ar
    19    12    13   1
    20    13    14   1
    21    14    15   1
    22    15    16   1
    23    16    17   1
    24    17    18   1
    25    18    19   2
    26    19    20   1
    27    20    21   1
    28    21    22   1
    29    22    23   1
    30    23    24   1
    31    24    25   1
    32     1    26   1
    33     2    27   1
    34     2    28   1
    35     3    29   1
    36     4    30   1
    37     5    31   1
    38     8    32   1
    39     9    33   1
    40    10    34   1
    41    11    35   1
    42    14    36   1
    43    14    37   1
    44    15    38   1
    45    15    39   1
    46    16    40   1
    47    17    41   1
    48    17    42   1
    49    19    43   1
    50    20    44   1
    51    20    45   1
    52    22    46   1
    53    23    47   1
    54    23    48   1
    55    24    49   1
    56    25    50   1
@<TRIPOS>SUBSTRUCTURE
     1  SY9      1

