@<TRIPOS>MOLECULE
2xys_ligand_033
    50    56
SMALL
GAST_HUCK
****
This file was generated by PARSER (from files_GN.cpp)

@<TRIPOS>ATOM
      1 CAV       -33.6489    1.0734  -13.0600 C.3         1 SY9      -0.0392
      2 CAU       -35.1902    1.1189  -13.2558 C.3         1 SY9      -0.0074
      3 CAT       -35.4741    2.1726  -14.3789 C.3         1 SY9      -0.0009
      4 CAN       -34.9654    1.5035  -15.6940 C.3         1 SY9       0.0127
      5 CAK       -33.4088    1.3345  -15.6631 C.3         1 SY9       0.0377
      6 NAH       -33.1031    0.4247  -16.7184 N.pl3       1 SY9      -0.2664
      7 CAA       -32.8107   -0.7905  -16.2057 C.ar        1 SY9       0.0752
      8 CAF       -32.6279   -2.0274  -16.8591 C.ar        1 SY9      -0.0107
      9 CAE       -32.3628   -3.1803  -16.0957 C.ar        1 SY9      -0.0448
     10 CAD       -32.2790   -3.0989  -14.6919 C.ar        1 SY9      -0.0454
     11 CAC       -32.4552   -1.8613  -14.0400 C.ar        1 SY9      -0.0502
     12 CAB       -32.7341   -0.7126  -14.8055 C.ar        1 SY9      -0.0229
     13 CAG       -32.8433    0.6892  -14.3488 C.3         1 SY9       0.0241
     14 CAW       -31.4445    1.2419  -13.9749 C.3         1 SY9      -0.0311
     15 CAX       -31.7553    2.5606  -13.2456 C.3         1 SY9      -0.0400
     16 NAY       -33.1134    2.4174  -12.6463 N.4         1 SY9       0.2407
     17 CAS       -34.0278    3.5967  -12.8689 C.3         1 SY9      -0.0074
     18 CAR       -34.8253    3.4795  -14.1051 C.2         1 SY9      -0.0310
     19 CAQ       -34.8731    4.5093  -14.9792 C.2         1 SY9      -0.0782
     20 CAP       -35.5247    4.4849  -16.2781 C.3         1 SY9       0.0552
     21 OAO       -34.9355    3.5185  -17.1760 O.3         1 SY9      -0.3712
     22 CAM       -35.3949    2.1565  -17.0398 C.3         1 SY9       0.0708
     23 CAL       -34.8649    1.2772  -18.2221 C.3         1 SY9       0.0233
     24 CAI       -33.3827    0.8127  -18.0805 C.3         1 SY9       0.1466
     25 OAJ       -32.5157    1.8767  -18.4638 O.3         1 SY9      -0.3686
     26 H1        -33.4259    0.3612  -12.2590 H           1 SY9       0.0728
     27 H2        -35.6799    1.4162  -12.3274 H           1 SY9       0.0333
     28 H3        -35.5701    0.1252  -13.5041 H           1 SY9       0.0333
     29 H4        -36.5570    2.3169  -14.4404 H           1 SY9       0.0453
     30 H5        -35.4225    0.5043  -15.7287 H           1 SY9       0.0364
     31 H6        -32.9276    2.3002  -15.8506 H           1 SY9       0.0464
     32 H7        -32.6895   -2.1005  -17.8751 H           1 SY9       0.0603
     33 H8        -32.2275   -4.0807  -16.5614 H           1 SY9       0.0812
     34 H9        -32.0756   -3.9408  -14.1506 H           1 SY9       0.0608
     35 H10       -32.3652   -1.7960  -13.0248 H           1 SY9       0.0786
     36 H11       -30.8058    1.4034  -14.8488 H           1 SY9       0.0203
     37 H12       -30.9268    0.5627  -13.2886 H           1 SY9       0.0203
     38 H13       -31.6994    3.3850  -13.9638 H           1 SY9       0.0805
     39 H14       -31.0208    2.7466  -12.4585 H           1 SY9       0.0805
     40 H15       -32.9718    2.3693  -11.6342 H           1 SY9       0.2039
     41 H16       -34.7301    3.6304  -12.0317 H           1 SY9       0.0964
     42 H17       -33.4587    4.5304  -12.8067 H           1 SY9       0.0964
     43 H18       -34.4105    5.3572  -14.7380 H           1 SY9       0.0266
     44 H19       -35.3991    5.4607  -16.7529 H           1 SY9       0.0635
     45 H20       -36.6010    4.3345  -16.1572 H           1 SY9       0.0635
     46 H21       -36.4889    2.1488  -17.1010 H           1 SY9       0.0604
     47 H22       -34.9912    1.8146  -19.1625 H           1 SY9       0.0338
     48 H23       -35.4875    0.3799  -18.2816 H           1 SY9       0.0338
     49 H24       -33.2040   -0.0071  -18.7784 H           1 SY9       0.0886
     50 H25       -31.6061    1.5484  -18.2947 H           1 SY9       0.2123
@<TRIPOS>BOND
     1     1     2   1
     2     1    13   1
     3     1    16   1
     4     2     3   1
     5     3     4   1
     6     3    18   1
     7     4     5   1
     8     4    22   1
     9     5     6   1
    10     5    13   1
    11     6     7   1
    12     6    24   1
    13     7     8  ar
    14     7    12  ar
    15     8     9  ar
    16     9    10  ar
    17    10    11  ar
    18    11    12  ar
    19    12    13   1
    20    13    14   1
    21    14    15   1
    22    15    16   1
    23    16    17   1
    24    17    18   1
    25    18    19   2
    26    19    20   1
    27    20    21   1
    28    21    22   1
    29    22    23   1
    30    23    24   1
    31    24    25   1
    32     1    26   1
    33     2    27   1
    34     2    28   1
    35     3    29   1
    36     4    30   1
    37     5    31   1
    38     8    32   1
    39     9    33   1
    40    10    34   1
    41    11    35   1
    42    14    36   1
    43    14    37   1
    44    15    38   1
    45    15    39   1
    46    16    40   1
    47    17    41   1
    48    17    42   1
    49    19    43   1
    50    20    44   1
    51    20    45   1
    52    22    46   1
    53    23    47   1
    54    23    48   1
    55    24    49   1
    56    25    50   1
@<TRIPOS>SUBSTRUCTURE
     1  SY9      1

