@<TRIPOS>MOLECULE
2xys_ligand_022
    50    56
SMALL
GAST_HUCK
****
This file was generated by PARSER (from files_GN.cpp)

@<TRIPOS>ATOM
      1 CAV       -33.8280    3.1806  -14.9674 C.3         1 SY9      -0.0392
      2 CAU       -32.2901    3.0212  -14.8331 C.3         1 SY9      -0.0074
      3 CAT       -32.0381    2.0742  -13.6149 C.3         1 SY9      -0.0009
      4 CAN       -32.4871    0.6481  -14.0683 C.3         1 SY9       0.0127
      5 CAK       -33.9986    0.5907  -14.4851 C.3         1 SY9       0.0377
      6 NAH       -34.0859   -0.5230  -15.3908 N.pl3       1 SY9      -0.2664
      7 CAA       -34.3795   -0.0868  -16.6360 C.ar        1 SY9       0.0752
      8 CAF       -34.4152   -0.8028  -17.8515 C.ar        1 SY9      -0.0107
      9 CAE       -34.7149   -0.1244  -19.0486 C.ar        1 SY9      -0.0448
     10 CAD       -34.9705    1.2617  -19.0321 C.ar        1 SY9      -0.0454
     11 CAC       -34.9058    1.9814  -17.8243 C.ar        1 SY9      -0.0502
     12 CAB       -34.6066    1.2969  -16.6277 C.ar        1 SY9      -0.0229
     13 CAG       -34.5789    1.8375  -15.2531 C.3         1 SY9       0.0241
     14 CAW       -36.0102    2.2157  -14.7905 C.3         1 SY9      -0.0311
     15 CAX       -35.7663    3.0537  -13.5281 C.3         1 SY9      -0.0400
     16 NAY       -34.4517    3.7291  -13.7131 N.4         1 SY9       0.2407
     17 CAS       -33.5808    3.7347  -12.4851 C.3         1 SY9      -0.0074
     18 CAR       -32.7215    2.5412  -12.3881 C.2         1 SY9      -0.0310
     19 CAQ       -32.5810    1.8966  -11.2103 C.2         1 SY9      -0.0782
     20 CAP       -31.8403    0.6634  -11.0319 C.3         1 SY9       0.0552
     21 OAO       -32.4761   -0.4021  -11.7521 O.3         1 SY9      -0.3712
     22 CAM       -32.1618   -0.5828  -13.1506 C.3         1 SY9       0.0708
     23 CAL       -32.9455   -1.8669  -13.6121 C.3         1 SY9       0.0233
     24 CAI       -33.5353   -1.8221  -15.0562 C.3         1 SY9       0.1466
     25 OAJ       -34.5165   -2.8514  -15.1879 O.3         1 SY9      -0.3686
     26 H1        -34.0256    3.8951  -15.7735 H           1 SY9       0.0728
     27 H2        -31.8277    3.9969  -14.6618 H           1 SY9       0.0333
     28 H3        -31.8651    2.6246  -15.7597 H           1 SY9       0.0333
     29 H4        -30.9584    2.0639  -13.4351 H           1 SY9       0.0453
     30 H5        -31.8886    0.4554  -14.9701 H           1 SY9       0.0364
     31 H6        -34.6067    0.3856  -13.5977 H           1 SY9       0.0464
     32 H7        -34.2274   -1.8073  -17.8771 H           1 SY9       0.0603
     33 H8        -34.7500   -0.6390  -19.9320 H           1 SY9       0.0812
     34 H9        -35.2136    1.7407  -19.9002 H           1 SY9       0.0608
     35 H10       -35.0883    2.9870  -17.8159 H           1 SY9       0.0786
     36 H11       -36.6304    1.3400  -14.5794 H           1 SY9       0.0203
     37 H12       -36.5213    2.8315  -15.5391 H           1 SY9       0.0203
     38 H13       -35.7739    2.3880  -12.6600 H           1 SY9       0.0805
     39 H14       -36.5535    3.7990  -13.3962 H           1 SY9       0.0805
     40 H15       -34.6632    4.7122  -13.9057 H           1 SY9       0.2039
     41 H16       -34.1982    3.8943  -11.5950 H           1 SY9       0.0964
     42 H17       -32.9255    4.6074  -12.5500 H           1 SY9       0.0964
     43 H18       -33.0405    2.2607  -10.4079 H           1 SY9       0.0266
     44 H19       -31.8617    0.3835   -9.9761 H           1 SY9       0.0635
     45 H20       -30.7894    0.7824  -11.3107 H           1 SY9       0.0635
     46 H21       -31.0891   -0.7970  -13.2253 H           1 SY9       0.0604
     47 H22       -33.7947   -2.0120  -12.9360 H           1 SY9       0.0338
     48 H23       -32.3025   -2.7449  -13.5220 H           1 SY9       0.0338
     49 H24       -32.7145   -2.0415  -15.7471 H           1 SY9       0.0886
     50 H25       -34.6911   -2.9439  -16.1445 H           1 SY9       0.2123
@<TRIPOS>BOND
     1     1     2   1
     2     1    13   1
     3     1    16   1
     4     2     3   1
     5     3     4   1
     6     3    18   1
     7     4     5   1
     8     4    22   1
     9     5     6   1
    10     5    13   1
    11     6     7   1
    12     6    24   1
    13     7     8  ar
    14     7    12  ar
    15     8     9  ar
    16     9    10  ar
    17    10    11  ar
    18    11    12  ar
    19    12    13   1
    20    13    14   1
    21    14    15   1
    22    15    16   1
    23    16    17   1
    24    17    18   1
    25    18    19   2
    26    19    20   1
    27    20    21   1
    28    21    22   1
    29    22    23   1
    30    23    24   1
    31    24    25   1
    32     1    26   1
    33     2    27   1
    34     2    28   1
    35     3    29   1
    36     4    30   1
    37     5    31   1
    38     8    32   1
    39     9    33   1
    40    10    34   1
    41    11    35   1
    42    14    36   1
    43    14    37   1
    44    15    38   1
    45    15    39   1
    46    16    40   1
    47    17    41   1
    48    17    42   1
    49    19    43   1
    50    20    44   1
    51    20    45   1
    52    22    46   1
    53    23    47   1
    54    23    48   1
    55    24    49   1
    56    25    50   1
@<TRIPOS>SUBSTRUCTURE
     1  SY9      1

