@<TRIPOS>MOLECULE
2xys_ligand_074
    50    56
SMALL
GAST_HUCK
****
This file was generated by PARSER (from files_GN.cpp)

@<TRIPOS>ATOM
      1 CAV       -47.5084   -0.9419  -15.6599 C.3         1 SY9      -0.0392
      2 CAU       -47.7269   -0.2733  -17.0481 C.3         1 SY9      -0.0074
      3 CAT       -47.5503   -1.3833  -18.1332 C.3         1 SY9      -0.0009
      4 CAN       -48.7951   -2.3165  -18.0094 C.3         1 SY9       0.0127
      5 CAK       -48.9162   -2.9635  -16.5855 C.3         1 SY9       0.0377
      6 NAH       -50.3094   -3.2593  -16.4425 N.pl3       1 SY9      -0.2664
      7 CAA       -50.8598   -2.4835  -15.4792 C.ar        1 SY9       0.0752
      8 CAF       -52.2098   -2.3507  -15.1022 C.ar        1 SY9      -0.0107
      9 CAE       -52.5655   -1.4397  -14.0870 C.ar        1 SY9      -0.0448
     10 CAD       -51.5729   -0.6840  -13.4364 C.ar        1 SY9      -0.0454
     11 CAC       -50.2181   -0.8553  -13.7758 C.ar        1 SY9      -0.0502
     12 CAB       -49.8753   -1.7257  -14.8360 C.ar        1 SY9      -0.0229
     13 CAG       -48.5359   -2.0763  -15.3397 C.3         1 SY9       0.0241
     14 CAW       -47.7734   -2.8750  -14.2551 C.3         1 SY9      -0.0311
     15 CAX       -46.3317   -2.8562  -14.7767 C.3         1 SY9      -0.0400
     16 NAY       -46.1577   -1.5969  -15.5543 N.4         1 SY9       0.2407
     17 CAS       -45.4066   -1.7528  -16.8510 C.3         1 SY9      -0.0074
     18 CAR       -46.2678   -2.0998  -17.9921 C.2         1 SY9      -0.0310
     19 CAQ       -45.8827   -3.0496  -18.8711 C.2         1 SY9      -0.0782
     20 CAP       -46.7039   -3.5404  -19.9590 C.3         1 SY9       0.0552
     21 OAO       -47.8646   -4.2040  -19.4388 O.3         1 SY9      -0.3712
     22 CAM       -49.0305   -3.4176  -19.1034 C.3         1 SY9       0.0708
     23 CAL       -50.1370   -4.4446  -18.6622 C.3         1 SY9       0.0233
     24 CAI       -51.0254   -4.0170  -17.4463 C.3         1 SY9       0.1466
     25 OAJ       -51.5789   -5.1935  -16.8574 O.3         1 SY9      -0.3686
     26 H1        -47.5647   -0.1628  -14.8926 H           1 SY9       0.0728
     27 H2        -46.9964    0.5261  -17.1982 H           1 SY9       0.0333
     28 H3        -48.7154    0.1852  -17.1082 H           1 SY9       0.0333
     29 H4        -47.5715   -0.8862  -19.1093 H           1 SY9       0.0453
     30 H5        -49.6515   -1.6406  -18.1435 H           1 SY9       0.0364
     31 H6        -48.3443   -3.8967  -16.5692 H           1 SY9       0.0464
     32 H7        -52.9324   -2.9081  -15.5521 H           1 SY9       0.0603
     33 H8        -53.5423   -1.3408  -13.8113 H           1 SY9       0.0812
     34 H9        -51.8360   -0.0248  -12.6981 H           1 SY9       0.0608
     35 H10       -49.4952   -0.3610  -13.2493 H           1 SY9       0.0786
     36 H11       -48.1479   -3.8960  -14.1332 H           1 SY9       0.0203
     37 H12       -47.8138   -2.3748  -13.2811 H           1 SY9       0.0203
     38 H13       -46.1738   -3.7462  -15.3929 H           1 SY9       0.0805
     39 H14       -45.6316   -2.8774  -13.9389 H           1 SY9       0.0805
     40 H15       -45.5723   -0.9962  -14.9639 H           1 SY9       0.2039
     41 H16       -44.5881   -2.4611  -16.7247 H           1 SY9       0.0964
     42 H17       -44.9366   -0.7922  -17.0766 H           1 SY9       0.0964
     43 H18       -44.9917   -3.4771  -18.7557 H           1 SY9       0.0266
     44 H19       -46.1396   -4.2882  -20.5214 H           1 SY9       0.0635
     45 H20       -46.9622   -2.7395  -20.6564 H           1 SY9       0.0635
     46 H21       -49.3719   -2.9226  -20.0198 H           1 SY9       0.0604
     47 H22       -49.6435   -5.3790  -18.3744 H           1 SY9       0.0338
     48 H23       -50.7812   -4.6814  -19.5134 H           1 SY9       0.0338
     49 H24       -51.8411   -3.3971  -17.8304 H           1 SY9       0.0886
     50 H25       -51.8532   -4.9380  -15.9528 H           1 SY9       0.2123
@<TRIPOS>BOND
     1     1     2   1
     2     1    13   1
     3     1    16   1
     4     2     3   1
     5     3     4   1
     6     3    18   1
     7     4     5   1
     8     4    22   1
     9     5     6   1
    10     5    13   1
    11     6     7   1
    12     6    24   1
    13     7     8  ar
    14     7    12  ar
    15     8     9  ar
    16     9    10  ar
    17    10    11  ar
    18    11    12  ar
    19    12    13   1
    20    13    14   1
    21    14    15   1
    22    15    16   1
    23    16    17   1
    24    17    18   1
    25    18    19   2
    26    19    20   1
    27    20    21   1
    28    21    22   1
    29    22    23   1
    30    23    24   1
    31    24    25   1
    32     1    26   1
    33     2    27   1
    34     2    28   1
    35     3    29   1
    36     4    30   1
    37     5    31   1
    38     8    32   1
    39     9    33   1
    40    10    34   1
    41    11    35   1
    42    14    36   1
    43    14    37   1
    44    15    38   1
    45    15    39   1
    46    16    40   1
    47    17    41   1
    48    17    42   1
    49    19    43   1
    50    20    44   1
    51    20    45   1
    52    22    46   1
    53    23    47   1
    54    23    48   1
    55    24    49   1
    56    25    50   1
@<TRIPOS>SUBSTRUCTURE
     1  SY9      1

