@<TRIPOS>MOLECULE
2xys_ligand_000
    50    56
SMALL
GAST_HUCK
****
This file was generated by PARSER (from files_GN.cpp)

@<TRIPOS>ATOM
      1 CAV       -46.0795   -2.5641  -16.4956 C.3         1 SY9      -0.0392
      2 CAU       -46.8454   -3.8766  -16.1639 C.3         1 SY9      -0.0074
      3 CAT       -48.3057   -3.4632  -15.7847 C.3         1 SY9      -0.0009
      4 CAN       -48.9548   -2.9969  -17.1251 C.3         1 SY9       0.0127
      5 CAK       -48.2717   -1.6902  -17.6507 C.3         1 SY9       0.0377
      6 NAH       -48.6773   -1.5693  -19.0146 N.pl3       1 SY9      -0.2664
      7 CAA       -47.6528   -1.9036  -19.8281 C.ar        1 SY9       0.0752
      8 CAF       -47.6315   -2.0992  -21.2258 C.ar        1 SY9      -0.0107
      9 CAE       -46.4323   -2.4848  -21.8541 C.ar        1 SY9      -0.0448
     10 CAD       -45.2599   -2.6780  -21.0914 C.ar        1 SY9      -0.0454
     11 CAC       -45.2763   -2.4696  -19.7014 C.ar        1 SY9      -0.0502
     12 CAB       -46.4815   -2.0929  -19.0742 C.ar        1 SY9      -0.0229
     13 CAG       -46.7026   -1.7233  -17.6621 C.3         1 SY9       0.0241
     14 CAW       -46.0733   -0.3361  -17.3703 C.3         1 SY9      -0.0311
     15 CAX       -46.1039   -0.2354  -15.8367 C.3         1 SY9      -0.0400
     16 NAY       -46.0454   -1.6291  -15.3157 N.4         1 SY9       0.2407
     17 CAS       -47.0330   -1.9298  -14.2133 C.3         1 SY9      -0.0074
     18 CAR       -48.3294   -2.4242  -14.7246 C.2         1 SY9      -0.0310
     19 CAQ       -49.4852   -1.8725  -14.2874 C.2         1 SY9      -0.0782
     20 CAP       -50.8121   -2.1615  -14.8051 C.3         1 SY9       0.0552
     21 OAO       -50.9547   -1.8278  -16.2036 O.3         1 SY9      -0.3712
     22 CAM       -50.5021   -2.8204  -17.1486 C.3         1 SY9       0.0708
     23 CAL       -50.9550   -2.4530  -18.6024 C.3         1 SY9       0.0233
     24 CAI       -50.0793   -1.3701  -19.3104 C.3         1 SY9       0.1466
     25 OAJ       -50.4682   -0.0713  -18.8642 O.3         1 SY9      -0.3686
     26 H1        -45.0498   -2.8259  -16.7497 H           1 SY9       0.0728
     27 H2        -46.3756   -4.3899  -15.3226 H           1 SY9       0.0333
     28 H3        -46.8091   -4.5667  -17.0113 H           1 SY9       0.0333
     29 H4        -48.8296   -4.3540  -15.4235 H           1 SY9       0.0453
     30 H5        -48.7699   -3.7981  -17.8528 H           1 SY9       0.0364
     31 H6        -48.6262   -0.8281  -17.0782 H           1 SY9       0.0464
     32 H7        -48.4752   -1.9699  -21.7857 H           1 SY9       0.0603
     33 H8        -46.4060   -2.6162  -22.8686 H           1 SY9       0.0812
     34 H9        -44.3924   -2.9574  -21.5542 H           1 SY9       0.0608
     35 H10       -44.4169   -2.5769  -19.1578 H           1 SY9       0.0786
     36 H11       -46.6170    0.4873  -17.8434 H           1 SY9       0.0203
     37 H12       -45.0312   -0.3059  -17.7081 H           1 SY9       0.0203
     38 H13       -47.0113    0.2941  -15.5294 H           1 SY9       0.0805
     39 H14       -45.2427    0.3296  -15.4711 H           1 SY9       0.0805
     40 H15       -45.1127   -1.7143  -14.9023 H           1 SY9       0.2039
     41 H16       -46.6026   -2.7224  -13.5968 H           1 SY9       0.0964
     42 H17       -47.1319   -1.0673  -13.5446 H           1 SY9       0.0964
     43 H18       -49.4365   -1.1931  -13.5622 H           1 SY9       0.0266
     44 H19       -51.5379   -1.5433  -14.2707 H           1 SY9       0.0635
     45 H20       -51.0782   -3.2029  -14.6031 H           1 SY9       0.0635
     46 H21       -50.9763   -3.7771  -16.9045 H           1 SY9       0.0604
     47 H22       -52.0008   -2.1337  -18.5917 H           1 SY9       0.0338
     48 H23       -50.9066   -3.3628  -19.2104 H           1 SY9       0.0338
     49 H24       -50.2721   -1.4131  -20.3848 H           1 SY9       0.0886
     50 H25       -50.0085    0.5550  -19.4626 H           1 SY9       0.2123
@<TRIPOS>BOND
     1     1     2   1
     2     1    13   1
     3     1    16   1
     4     2     3   1
     5     3     4   1
     6     3    18   1
     7     4     5   1
     8     4    22   1
     9     5     6   1
    10     5    13   1
    11     6     7   1
    12     6    24   1
    13     7     8  ar
    14     7    12  ar
    15     8     9  ar
    16     9    10  ar
    17    10    11  ar
    18    11    12  ar
    19    12    13   1
    20    13    14   1
    21    14    15   1
    22    15    16   1
    23    16    17   1
    24    17    18   1
    25    18    19   2
    26    19    20   1
    27    20    21   1
    28    21    22   1
    29    22    23   1
    30    23    24   1
    31    24    25   1
    32     1    26   1
    33     2    27   1
    34     2    28   1
    35     3    29   1
    36     4    30   1
    37     5    31   1
    38     8    32   1
    39     9    33   1
    40    10    34   1
    41    11    35   1
    42    14    36   1
    43    14    37   1
    44    15    38   1
    45    15    39   1
    46    16    40   1
    47    17    41   1
    48    17    42   1
    49    19    43   1
    50    20    44   1
    51    20    45   1
    52    22    46   1
    53    23    47   1
    54    23    48   1
    55    24    49   1
    56    25    50   1
@<TRIPOS>SUBSTRUCTURE
     1  SY9      1

