@<TRIPOS>MOLECULE
2xys_ligand_049
    50    56
SMALL
GAST_HUCK
****
This file was generated by PARSER (from files_GN.cpp)

@<TRIPOS>ATOM
      1 CAV       -34.8094    0.4216  -15.4566 C.3         1 SY9      -0.0392
      2 CAU       -34.3058   -0.9345  -16.0167 C.3         1 SY9      -0.0074
      3 CAT       -33.1700   -0.6120  -17.0421 C.3         1 SY9      -0.0009
      4 CAN       -31.9472   -0.1196  -16.2029 C.3         1 SY9       0.0127
      5 CAK       -32.2784    1.1535  -15.3498 C.3         1 SY9       0.0377
      6 NAH       -31.3456    1.1024  -14.2608 N.pl3       1 SY9      -0.2664
      7 CAA       -31.9949    0.8641  -13.1014 C.ar        1 SY9       0.0752
      8 CAF       -31.4696    0.5731  -11.8250 C.ar        1 SY9      -0.0107
      9 CAE       -32.3486    0.3111  -10.7557 C.ar        1 SY9      -0.0448
     10 CAD       -33.7438    0.3368  -10.9591 C.ar        1 SY9      -0.0454
     11 CAC       -34.2658    0.6232  -12.2349 C.ar        1 SY9      -0.0502
     12 CAB       -33.3833    0.8721  -13.3059 C.ar        1 SY9      -0.0229
     13 CAG       -33.7092    1.2357  -14.6993 C.3         1 SY9       0.0241
     14 CAW       -34.3167    2.6602  -14.7672 C.3         1 SY9      -0.0311
     15 CAX       -34.9270    2.7242  -16.1782 C.3         1 SY9      -0.0400
     16 NAY       -35.3073    1.3308  -16.5447 N.4         1 SY9       0.2407
     17 CAS       -34.9546    0.9356  -17.9543 C.3         1 SY9      -0.0074
     18 CAR       -33.6054    0.3570  -18.0699 C.2         1 SY9      -0.0310
     19 CAQ       -32.8007    0.7133  -19.0927 C.2         1 SY9      -0.0782
     20 CAP       -31.4218    0.2912  -19.2387 C.3         1 SY9       0.0552
     21 OAO       -30.6294    0.8198  -18.1641 O.3         1 SY9      -0.3712
     22 CAM       -30.5653    0.0903  -16.9175 C.3         1 SY9       0.0708
     23 CAL       -29.5487    0.8740  -16.0054 C.3         1 SY9       0.0233
     24 CAI       -29.9224    0.9503  -14.4896 C.3         1 SY9       0.1466
     25 OAJ       -29.2156    2.0342  -13.8828 O.3         1 SY9      -0.3686
     26 H1        -35.6488    0.2185  -14.7866 H           1 SY9       0.0728
     27 H2        -35.1275   -1.4563  -16.5139 H           1 SY9       0.0333
     28 H3        -33.9624   -1.5814  -15.2020 H           1 SY9       0.0333
     29 H4        -32.9051   -1.5538  -17.5339 H           1 SY9       0.0453
     30 H5        -31.7537   -0.9483  -15.5071 H           1 SY9       0.0364
     31 H6        -32.0928    2.0475  -15.9542 H           1 SY9       0.0464
     32 H7        -30.4610    0.5426  -11.6672 H           1 SY9       0.0603
     33 H8        -31.9740    0.0999   -9.8274 H           1 SY9       0.0812
     34 H9        -34.3771    0.1495  -10.1785 H           1 SY9       0.0608
     35 H10       -35.2776    0.6512  -12.3778 H           1 SY9       0.0786
     36 H11       -33.5735    3.4473  -14.6110 H           1 SY9       0.0203
     37 H12       -35.1126    2.7845  -14.0256 H           1 SY9       0.0203
     38 H13       -34.1905    3.1482  -16.8685 H           1 SY9       0.0805
     39 H14       -35.8121    3.3673  -16.1887 H           1 SY9       0.0805
     40 H15       -36.3290    1.2958  -16.4984 H           1 SY9       0.2039
     41 H16       -35.1131    1.7803  -18.6336 H           1 SY9       0.0964
     42 H17       -35.6662    0.1681  -18.2655 H           1 SY9       0.0964
     43 H18       -33.1519    1.3323  -19.7885 H           1 SY9       0.0266
     44 H19       -31.0156    0.7096  -20.1621 H           1 SY9       0.0635
     45 H20       -31.3464   -0.7962  -19.3157 H           1 SY9       0.0635
     46 H21       -30.1407   -0.8979  -17.1305 H           1 SY9       0.0604
     47 H22       -29.4741    1.9033  -16.3661 H           1 SY9       0.0338
     48 H23       -28.5524    0.4319  -16.1053 H           1 SY9       0.0338
     49 H24       -29.5885    0.0191  -14.0242 H           1 SY9       0.0886
     50 H25       -29.3736    1.9497  -12.9166 H           1 SY9       0.2123
@<TRIPOS>BOND
     1     1     2   1
     2     1    13   1
     3     1    16   1
     4     2     3   1
     5     3     4   1
     6     3    18   1
     7     4     5   1
     8     4    22   1
     9     5     6   1
    10     5    13   1
    11     6     7   1
    12     6    24   1
    13     7     8  ar
    14     7    12  ar
    15     8     9  ar
    16     9    10  ar
    17    10    11  ar
    18    11    12  ar
    19    12    13   1
    20    13    14   1
    21    14    15   1
    22    15    16   1
    23    16    17   1
    24    17    18   1
    25    18    19   2
    26    19    20   1
    27    20    21   1
    28    21    22   1
    29    22    23   1
    30    23    24   1
    31    24    25   1
    32     1    26   1
    33     2    27   1
    34     2    28   1
    35     3    29   1
    36     4    30   1
    37     5    31   1
    38     8    32   1
    39     9    33   1
    40    10    34   1
    41    11    35   1
    42    14    36   1
    43    14    37   1
    44    15    38   1
    45    15    39   1
    46    16    40   1
    47    17    41   1
    48    17    42   1
    49    19    43   1
    50    20    44   1
    51    20    45   1
    52    22    46   1
    53    23    47   1
    54    23    48   1
    55    24    49   1
    56    25    50   1
@<TRIPOS>SUBSTRUCTURE
     1  SY9      1

