@<TRIPOS>MOLECULE
2xys_ligand_024
    50    56
SMALL
GAST_HUCK
****
This file was generated by PARSER (from files_GN.cpp)

@<TRIPOS>ATOM
      1 CAV       -39.5446    6.5801  -16.9094 C.3         1 SY9      -0.0392
      2 CAU       -40.1210    5.6245  -17.9922 C.3         1 SY9      -0.0074
      3 CAT       -41.2331    4.7715  -17.2992 C.3         1 SY9      -0.0009
      4 CAN       -42.4136    5.7617  -17.0381 C.3         1 SY9       0.0127
      5 CAK       -41.9905    6.8385  -15.9793 C.3         1 SY9       0.0377
      6 NAH       -42.9715    7.8662  -16.0821 N.pl3       1 SY9      -0.2664
      7 CAA       -42.4578    8.9204  -16.7484 C.ar        1 SY9       0.0752
      8 CAF       -43.1066   10.0578  -17.2671 C.ar        1 SY9      -0.0107
      9 CAE       -42.3469   11.0592  -17.9003 C.ar        1 SY9      -0.0448
     10 CAD       -40.9559   10.9054  -18.0490 C.ar        1 SY9      -0.0454
     11 CAC       -40.3162    9.7417  -17.5775 C.ar        1 SY9      -0.0502
     12 CAB       -41.0799    8.7439  -16.9373 C.ar        1 SY9      -0.0229
     13 CAG       -40.6067    7.5270  -16.2520 C.3         1 SY9       0.0241
     14 CAW       -39.8717    7.9074  -14.9445 C.3         1 SY9      -0.0311
     15 CAX       -39.1752    6.6040  -14.5196 C.3         1 SY9      -0.0400
     16 NAY       -38.9467    5.8111  -15.7624 N.4         1 SY9       0.2407
     17 CAS       -39.3442    4.3585  -15.6657 C.3         1 SY9      -0.0074
     18 CAR       -40.7452    4.1099  -16.0656 C.2         1 SY9      -0.0310
     19 CAQ       -41.5534    3.3711  -15.2769 C.2         1 SY9      -0.0782
     20 CAP       -42.9754    3.1608  -15.4798 C.3         1 SY9       0.0552
     21 OAO       -43.7391    4.3867  -15.4250 O.3         1 SY9      -0.3712
     22 CAM       -43.7972    5.1619  -16.6391 C.3         1 SY9       0.0708
     23 CAL       -44.8406    6.3235  -16.4995 C.3         1 SY9       0.0233
     24 CAI       -44.3326    7.5696  -15.7015 C.3         1 SY9       0.1466
     25 OAJ       -44.4314    7.2987  -14.3019 O.3         1 SY9      -0.3686
     26 H1        -38.7459    7.1787  -17.3664 H           1 SY9       0.0728
     27 H2        -39.3303    4.9730  -18.3595 H           1 SY9       0.0333
     28 H3        -40.4922    6.1952  -18.8470 H           1 SY9       0.0333
     29 H4        -41.5518    4.0055  -18.0047 H           1 SY9       0.0453
     30 H5        -42.6100    6.2659  -17.9959 H           1 SY9       0.0364
     31 H6        -42.0009    6.3931  -14.9770 H           1 SY9       0.0464
     32 H7        -44.1157   10.1770  -17.1683 H           1 SY9       0.0603
     33 H8        -42.8033   11.9004  -18.2399 H           1 SY9       0.0812
     34 H9        -40.4034   11.6411  -18.4962 H           1 SY9       0.0608
     35 H10       -39.2971    9.6425  -17.6673 H           1 SY9       0.0786
     36 H11       -40.5527    8.2758  -14.1736 H           1 SY9       0.0203
     37 H12       -39.1149    8.6721  -15.1315 H           1 SY9       0.0203
     38 H13       -39.8091    6.0783  -13.7965 H           1 SY9       0.0805
     39 H14       -38.2190    6.8203  -14.0366 H           1 SY9       0.0805
     40 H15       -37.9342    5.8116  -15.9163 H           1 SY9       0.2039
     41 H16       -38.7086    3.8013  -16.3599 H           1 SY9       0.0964
     42 H17       -39.0993    3.9686  -14.6739 H           1 SY9       0.0964
     43 H18       -41.1585    2.9340  -14.4854 H           1 SY9       0.0266
     44 H19       -43.3551    2.5291  -14.6725 H           1 SY9       0.0635
     45 H20       -43.1488    2.6129  -16.4132 H           1 SY9       0.0635
     46 H21       -44.1547    4.5171  -17.4423 H           1 SY9       0.0604
     47 H22       -45.7619    5.9396  -16.0493 H           1 SY9       0.0338
     48 H23       -45.1009    6.6649  -17.5112 H           1 SY9       0.0338
     49 H24       -44.9987    8.4089  -15.9103 H           1 SY9       0.0886
     50 H25       -44.1815    8.1141  -13.8443 H           1 SY9       0.2123
@<TRIPOS>BOND
     1     1     2   1
     2     1    13   1
     3     1    16   1
     4     2     3   1
     5     3     4   1
     6     3    18   1
     7     4     5   1
     8     4    22   1
     9     5     6   1
    10     5    13   1
    11     6     7   1
    12     6    24   1
    13     7     8  ar
    14     7    12  ar
    15     8     9  ar
    16     9    10  ar
    17    10    11  ar
    18    11    12  ar
    19    12    13   1
    20    13    14   1
    21    14    15   1
    22    15    16   1
    23    16    17   1
    24    17    18   1
    25    18    19   2
    26    19    20   1
    27    20    21   1
    28    21    22   1
    29    22    23   1
    30    23    24   1
    31    24    25   1
    32     1    26   1
    33     2    27   1
    34     2    28   1
    35     3    29   1
    36     4    30   1
    37     5    31   1
    38     8    32   1
    39     9    33   1
    40    10    34   1
    41    11    35   1
    42    14    36   1
    43    14    37   1
    44    15    38   1
    45    15    39   1
    46    16    40   1
    47    17    41   1
    48    17    42   1
    49    19    43   1
    50    20    44   1
    51    20    45   1
    52    22    46   1
    53    23    47   1
    54    23    48   1
    55    24    49   1
    56    25    50   1
@<TRIPOS>SUBSTRUCTURE
     1  SY9      1

