@<TRIPOS>MOLECULE
2xys_ligand_077
    50    56
SMALL
GAST_HUCK
****
This file was generated by PARSER (from files_GN.cpp)

@<TRIPOS>ATOM
      1 CAV       -35.5651    1.1754  -15.5562 C.3         1 SY9      -0.0392
      2 CAU       -34.8414    1.6724  -16.8356 C.3         1 SY9      -0.0074
      3 CAT       -34.6023    3.2055  -16.6496 C.3         1 SY9      -0.0009
      4 CAN       -33.4962    3.3503  -15.5515 C.3         1 SY9       0.0127
      5 CAK       -33.9091    2.7032  -14.1897 C.3         1 SY9       0.0377
      6 NAH       -32.6654    2.3869  -13.5512 N.pl3       1 SY9      -0.2664
      7 CAA       -32.5137    1.0522  -13.4549 C.ar        1 SY9       0.0752
      8 CAF       -31.3883    0.3196  -13.0241 C.ar        1 SY9      -0.0107
      9 CAE       -31.4316   -1.0853  -13.0475 C.ar        1 SY9      -0.0448
     10 CAD       -32.5843   -1.7523  -13.5105 C.ar        1 SY9      -0.0454
     11 CAC       -33.7042   -1.0165  -13.9476 C.ar        1 SY9      -0.0502
     12 CAB       -33.6601    0.3941  -13.9188 C.ar        1 SY9      -0.0229
     13 CAG       -34.7279    1.3606  -14.2502 C.3         1 SY9       0.0241
     14 CAW       -35.8568    1.3259  -13.1869 C.3         1 SY9      -0.0311
     15 CAX       -37.0024    2.1120  -13.8461 C.3         1 SY9      -0.0400
     16 NAY       -36.8544    1.9146  -15.3152 N.4         1 SY9       0.2407
     17 CAS       -37.0804    3.1527  -16.1353 C.3         1 SY9      -0.0074
     18 CAR       -35.8476    3.9344  -16.3245 C.2         1 SY9      -0.0310
     19 CAQ       -35.8647    5.2756  -16.1948 C.2         1 SY9      -0.0782
     20 CAP       -34.6801    6.1071  -16.2643 C.3         1 SY9       0.0552
     21 OAO       -33.8344    5.8341  -15.1360 O.3         1 SY9      -0.3712
     22 CAM       -32.8723    4.7613  -15.2549 C.3         1 SY9       0.0708
     23 CAL       -32.0132    4.7751  -13.9354 C.3         1 SY9       0.0233
     24 CAI       -31.6043    3.3619  -13.4117 C.3         1 SY9       0.1466
     25 OAJ       -31.2040    3.4278  -12.0472 O.3         1 SY9      -0.3686
     26 H1        -35.8097    0.1170  -15.6921 H           1 SY9       0.0728
     27 H2        -35.4671    1.4939  -17.7146 H           1 SY9       0.0333
     28 H3        -33.9075    1.1228  -16.9872 H           1 SY9       0.0333
     29 H4        -34.2143    3.5844  -17.5999 H           1 SY9       0.0453
     30 H5        -32.6509    2.7708  -15.9504 H           1 SY9       0.0364
     31 H6        -34.4462    3.4480  -13.5905 H           1 SY9       0.0464
     32 H7        -30.5450    0.7929  -12.6984 H           1 SY9       0.0603
     33 H8        -30.6201   -1.6215  -12.7344 H           1 SY9       0.0812
     34 H9        -32.6064   -2.7741  -13.5264 H           1 SY9       0.0608
     35 H10       -34.5352   -1.5060  -14.2845 H           1 SY9       0.0786
     36 H11       -35.5511    1.7828  -12.2410 H           1 SY9       0.0203
     37 H12       -36.1839    0.2989  -12.9912 H           1 SY9       0.0203
     38 H13       -36.9253    3.1652  -13.5610 H           1 SY9       0.0805
     39 H14       -37.9715    1.7352  -13.5120 H           1 SY9       0.0805
     40 H15       -37.6003    1.2747  -15.5892 H           1 SY9       0.2039
     41 H16       -37.9029    3.7410  -15.7124 H           1 SY9       0.0964
     42 H17       -37.4248    2.8294  -17.1224 H           1 SY9       0.0964
     43 H18       -36.7305    5.7324  -16.0157 H           1 SY9       0.0266
     44 H19       -34.9683    7.1558  -16.2023 H           1 SY9       0.0635
     45 H20       -34.1620    5.9777  -17.2190 H           1 SY9       0.0635
     46 H21       -32.1992    5.0025  -16.0811 H           1 SY9       0.0604
     47 H22       -32.5889    5.2621  -13.1425 H           1 SY9       0.0338
     48 H23       -31.1090    5.3739  -14.0889 H           1 SY9       0.0338
     49 H24       -30.7417    3.0326  -13.9976 H           1 SY9       0.0886
     50 H25       -32.0456    3.3971  -11.5451 H           1 SY9       0.2123
@<TRIPOS>BOND
     1     1     2   1
     2     1    13   1
     3     1    16   1
     4     2     3   1
     5     3     4   1
     6     3    18   1
     7     4     5   1
     8     4    22   1
     9     5     6   1
    10     5    13   1
    11     6     7   1
    12     6    24   1
    13     7     8  ar
    14     7    12  ar
    15     8     9  ar
    16     9    10  ar
    17    10    11  ar
    18    11    12  ar
    19    12    13   1
    20    13    14   1
    21    14    15   1
    22    15    16   1
    23    16    17   1
    24    17    18   1
    25    18    19   2
    26    19    20   1
    27    20    21   1
    28    21    22   1
    29    22    23   1
    30    23    24   1
    31    24    25   1
    32     1    26   1
    33     2    27   1
    34     2    28   1
    35     3    29   1
    36     4    30   1
    37     5    31   1
    38     8    32   1
    39     9    33   1
    40    10    34   1
    41    11    35   1
    42    14    36   1
    43    14    37   1
    44    15    38   1
    45    15    39   1
    46    16    40   1
    47    17    41   1
    48    17    42   1
    49    19    43   1
    50    20    44   1
    51    20    45   1
    52    22    46   1
    53    23    47   1
    54    23    48   1
    55    24    49   1
    56    25    50   1
@<TRIPOS>SUBSTRUCTURE
     1  SY9      1

