@<TRIPOS>MOLECULE
2xys_ligand_067
    50    56
SMALL
GAST_HUCK
****
This file was generated by PARSER (from files_GN.cpp)

@<TRIPOS>ATOM
      1 CAV       -35.9868    0.8594  -17.7817 C.3         1 SY9      -0.0392
      2 CAU       -36.2131   -0.6727  -17.8910 C.3         1 SY9      -0.0074
      3 CAT       -34.8141   -1.3500  -17.6813 C.3         1 SY9      -0.0009
      4 CAN       -34.4819   -1.1377  -16.1700 C.3         1 SY9       0.0127
      5 CAK       -34.2553    0.3805  -15.8604 C.3         1 SY9       0.0377
      6 NAH       -34.3153    0.4942  -14.4394 N.pl3       1 SY9      -0.2664
      7 CAA       -35.4982    1.0467  -14.0779 C.ar        1 SY9       0.0752
      8 CAF       -36.0820    1.2014  -12.8035 C.ar        1 SY9      -0.0107
      9 CAE       -37.3537    1.8055  -12.6918 C.ar        1 SY9      -0.0448
     10 CAD       -38.0278    2.2640  -13.8391 C.ar        1 SY9      -0.0454
     11 CAC       -37.4446    2.1174  -15.1121 C.ar        1 SY9      -0.0502
     12 CAB       -36.1900    1.4845  -15.2175 C.ar        1 SY9      -0.0229
     13 CAG       -35.3640    1.3340  -16.4250 C.3         1 SY9       0.0241
     14 CAW       -34.8017    2.7165  -16.8308 C.3         1 SY9      -0.0311
     15 CAX       -34.2617    2.4670  -18.2411 C.3         1 SY9      -0.0400
     16 NAY       -35.0294    1.3401  -18.8351 N.4         1 SY9       0.2407
     17 CAS       -34.1836    0.2859  -19.5022 C.3         1 SY9      -0.0074
     18 CAR       -33.7791   -0.7925  -18.5824 C.2         1 SY9      -0.0310
     19 CAQ       -32.4820   -1.1774  -18.5210 C.2         1 SY9      -0.0782
     20 CAP       -31.9337   -2.1440  -17.5871 C.3         1 SY9       0.0552
     21 OAO       -32.0487   -1.7233  -16.2107 O.3         1 SY9      -0.3712
     22 CAM       -33.3158   -1.9774  -15.5677 C.3         1 SY9       0.0708
     23 CAL       -33.2227   -1.6865  -14.0300 C.3         1 SY9       0.0233
     24 CAI       -33.3160   -0.1765  -13.6380 C.3         1 SY9       0.1466
     25 OAJ       -32.0482    0.4656  -13.7929 O.3         1 SY9      -0.3686
     26 H1        -36.9475    1.3568  -17.9421 H           1 SY9       0.0728
     27 H2        -36.6134   -0.9281  -18.8762 H           1 SY9       0.0333
     28 H3        -36.9559   -0.9951  -17.1551 H           1 SY9       0.0333
     29 H4        -34.9189   -2.4209  -17.8838 H           1 SY9       0.0453
     30 H5        -35.3627   -1.4736  -15.6114 H           1 SY9       0.0364
     31 H6        -33.2730    0.6895  -16.2267 H           1 SY9       0.0464
     32 H7        -35.5969    0.8756  -11.9668 H           1 SY9       0.0603
     33 H8        -37.7962    1.9126  -11.7804 H           1 SY9       0.0812
     34 H9        -38.9423    2.7034  -13.7564 H           1 SY9       0.0608
     35 H10       -37.9266    2.4678  -15.9406 H           1 SY9       0.0786
     36 H11       -34.0222    3.0774  -16.1535 H           1 SY9       0.0203
     37 H12       -35.5949    3.4709  -16.8771 H           1 SY9       0.0203
     38 H13       -33.1924    2.2435  -18.1794 H           1 SY9       0.0805
     39 H14       -34.4014    3.3677  -18.8392 H           1 SY9       0.0805
     40 H15       -35.5990    1.7384  -19.5829 H           1 SY9       0.2039
     41 H16       -34.7936   -0.1693  -20.2863 H           1 SY9       0.0964
     42 H17       -33.3420    0.7542  -20.0238 H           1 SY9       0.0964
     43 H18       -31.8361   -0.7566  -19.1497 H           1 SY9       0.0266
     44 H19       -30.8635   -2.2493  -17.7829 H           1 SY9       0.0635
     45 H20       -32.3809   -3.1283  -17.7554 H           1 SY9       0.0635
     46 H21       -33.5540   -3.0430  -15.6735 H           1 SY9       0.0604
     47 H22       -32.3040   -2.1213  -13.6264 H           1 SY9       0.0338
     48 H23       -34.0574   -2.1946  -13.5493 H           1 SY9       0.0338
     49 H24       -33.5572   -0.1106  -12.5762 H           1 SY9       0.0886
     50 H25       -31.7595    0.2816  -14.7102 H           1 SY9       0.2123
@<TRIPOS>BOND
     1     1     2   1
     2     1    13   1
     3     1    16   1
     4     2     3   1
     5     3     4   1
     6     3    18   1
     7     4     5   1
     8     4    22   1
     9     5     6   1
    10     5    13   1
    11     6     7   1
    12     6    24   1
    13     7     8  ar
    14     7    12  ar
    15     8     9  ar
    16     9    10  ar
    17    10    11  ar
    18    11    12  ar
    19    12    13   1
    20    13    14   1
    21    14    15   1
    22    15    16   1
    23    16    17   1
    24    17    18   1
    25    18    19   2
    26    19    20   1
    27    20    21   1
    28    21    22   1
    29    22    23   1
    30    23    24   1
    31    24    25   1
    32     1    26   1
    33     2    27   1
    34     2    28   1
    35     3    29   1
    36     4    30   1
    37     5    31   1
    38     8    32   1
    39     9    33   1
    40    10    34   1
    41    11    35   1
    42    14    36   1
    43    14    37   1
    44    15    38   1
    45    15    39   1
    46    16    40   1
    47    17    41   1
    48    17    42   1
    49    19    43   1
    50    20    44   1
    51    20    45   1
    52    22    46   1
    53    23    47   1
    54    23    48   1
    55    24    49   1
    56    25    50   1
@<TRIPOS>SUBSTRUCTURE
     1  SY9      1

