@<TRIPOS>MOLECULE
2xys_ligand_057
    50    56
SMALL
GAST_HUCK
****
This file was generated by PARSER (from files_GN.cpp)

@<TRIPOS>ATOM
      1 CAV       -34.3773    2.0921  -17.0914 C.3         1 SY9      -0.0392
      2 CAU       -34.3226    3.4203  -16.2894 C.3         1 SY9      -0.0074
      3 CAT       -35.0407    3.1570  -14.9254 C.3         1 SY9      -0.0009
      4 CAN       -34.0916    2.2276  -14.1031 C.3         1 SY9       0.0127
      5 CAK       -33.8021    0.8691  -14.8299 C.3         1 SY9       0.0377
      6 NAH       -32.5362    0.4441  -14.3046 N.pl3       1 SY9      -0.2664
      7 CAA       -31.5934    0.4688  -15.2710 C.ar        1 SY9       0.0752
      8 CAF       -30.2005    0.2659  -15.1656 C.ar        1 SY9      -0.0107
      9 CAE       -29.3942    0.3864  -16.3143 C.ar        1 SY9      -0.0448
     10 CAD       -29.9740    0.7077  -17.5580 C.ar        1 SY9      -0.0454
     11 CAC       -31.3643    0.9098  -17.6606 C.ar        1 SY9      -0.0502
     12 CAB       -32.1668    0.8003  -16.5058 C.ar        1 SY9      -0.0229
     13 CAG       -33.6358    0.9040  -16.3956 C.3         1 SY9       0.0241
     14 CAW       -34.3159   -0.3002  -17.0964 C.3         1 SY9      -0.0311
     15 CAX       -35.7875    0.1308  -17.1977 C.3         1 SY9      -0.0400
     16 NAY       -35.7888    1.6172  -17.3009 N.4         1 SY9       0.2407
     17 CAS       -36.8478    2.2970  -16.4760 C.3         1 SY9      -0.0074
     18 CAR       -36.3987    2.5981  -15.1058 C.2         1 SY9      -0.0310
     19 CAQ       -37.2138    2.3608  -14.0575 C.2         1 SY9      -0.0782
     20 CAP       -36.8311    2.5207  -12.6703 C.3         1 SY9       0.0552
     21 OAO       -35.7940    1.5886  -12.3286 O.3         1 SY9      -0.3712
     22 CAM       -34.4174    1.9397  -12.5945 C.3         1 SY9       0.0708
     23 CAL       -33.5408    0.7630  -12.0213 C.3         1 SY9       0.0233
     24 CAI       -32.2869    0.3849  -12.8785 C.3         1 SY9       0.1466
     25 OAJ       -31.8226   -0.9192  -12.5310 O.3         1 SY9      -0.3686
     26 H1        -33.9408    2.2734  -18.0783 H           1 SY9       0.0728
     27 H2        -34.8359    4.2116  -16.8431 H           1 SY9       0.0333
     28 H3        -33.2867    3.7451  -16.1577 H           1 SY9       0.0333
     29 H4        -35.1222    4.1216  -14.4140 H           1 SY9       0.0453
     30 H5        -33.1471    2.7888  -14.0574 H           1 SY9       0.0364
     31 H6        -34.5758    0.1446  -14.5529 H           1 SY9       0.0464
     32 H7        -29.7726    0.0357  -14.2671 H           1 SY9       0.0603
     33 H8        -28.3846    0.2402  -16.2456 H           1 SY9       0.0812
     34 H9        -29.3848    0.7882  -18.3895 H           1 SY9       0.0608
     35 H10       -31.7818    1.1260  -18.5676 H           1 SY9       0.0786
     36 H11       -34.2035   -1.2358  -16.5404 H           1 SY9       0.0203
     37 H12       -33.9152   -0.4470  -18.1051 H           1 SY9       0.0203
     38 H13       -36.3238   -0.2261  -16.3125 H           1 SY9       0.0805
     39 H14       -36.2586   -0.3058  -18.0815 H           1 SY9       0.0805
     40 H15       -36.0180    1.8309  -18.2740 H           1 SY9       0.2039
     41 H16       -37.7753    1.7165  -16.5055 H           1 SY9       0.0964
     42 H17       -37.0802    3.2485  -16.9588 H           1 SY9       0.0964
     43 H18       -38.1330    2.0220  -14.2309 H           1 SY9       0.0266
     44 H19       -37.6880    2.2840  -12.0340 H           1 SY9       0.0635
     45 H20       -36.5447    3.5533  -12.4521 H           1 SY9       0.0635
     46 H21       -34.1886    2.8438  -12.0183 H           1 SY9       0.0604
     47 H22       -34.1591   -0.1374  -11.9543 H           1 SY9       0.0338
     48 H23       -33.2238    1.0028  -11.0024 H           1 SY9       0.0338
     49 H24       -31.4955    1.1001  -12.6349 H           1 SY9       0.0886
     50 H25       -32.5424   -1.5257  -12.8045 H           1 SY9       0.2123
@<TRIPOS>BOND
     1     1     2   1
     2     1    13   1
     3     1    16   1
     4     2     3   1
     5     3     4   1
     6     3    18   1
     7     4     5   1
     8     4    22   1
     9     5     6   1
    10     5    13   1
    11     6     7   1
    12     6    24   1
    13     7     8  ar
    14     7    12  ar
    15     8     9  ar
    16     9    10  ar
    17    10    11  ar
    18    11    12  ar
    19    12    13   1
    20    13    14   1
    21    14    15   1
    22    15    16   1
    23    16    17   1
    24    17    18   1
    25    18    19   2
    26    19    20   1
    27    20    21   1
    28    21    22   1
    29    22    23   1
    30    23    24   1
    31    24    25   1
    32     1    26   1
    33     2    27   1
    34     2    28   1
    35     3    29   1
    36     4    30   1
    37     5    31   1
    38     8    32   1
    39     9    33   1
    40    10    34   1
    41    11    35   1
    42    14    36   1
    43    14    37   1
    44    15    38   1
    45    15    39   1
    46    16    40   1
    47    17    41   1
    48    17    42   1
    49    19    43   1
    50    20    44   1
    51    20    45   1
    52    22    46   1
    53    23    47   1
    54    23    48   1
    55    24    49   1
    56    25    50   1
@<TRIPOS>SUBSTRUCTURE
     1  SY9      1

