@<TRIPOS>MOLECULE
2xys_ligand_050
    50    56
SMALL
GAST_HUCK
****
This file was generated by PARSER (from files_GN.cpp)

@<TRIPOS>ATOM
      1 CAV       -33.7404    1.1733  -17.0540 C.3         1 SY9      -0.0392
      2 CAU       -33.5570    1.3809  -18.5779 C.3         1 SY9      -0.0074
      3 CAT       -33.9852    0.0508  -19.2766 C.3         1 SY9      -0.0009
      4 CAN       -35.5368   -0.0367  -19.1376 C.3         1 SY9       0.0127
      5 CAK       -36.0108   -0.0366  -17.6409 C.3         1 SY9       0.0377
      6 NAH       -37.3556    0.4714  -17.6915 N.pl3       1 SY9      -0.2664
      7 CAA       -37.4144    1.6776  -17.0841 C.ar        1 SY9       0.0752
      8 CAF       -38.4861    2.5993  -17.0234 C.ar        1 SY9      -0.0107
      9 CAE       -38.3027    3.8339  -16.3728 C.ar        1 SY9      -0.0448
     10 CAD       -37.0610    4.1535  -15.7871 C.ar        1 SY9      -0.0454
     11 CAC       -35.9947    3.2363  -15.8500 C.ar        1 SY9      -0.0502
     12 CAB       -36.1772    2.0053  -16.5110 C.ar        1 SY9      -0.0229
     13 CAG       -35.2202    0.8852  -16.6385 C.3         1 SY9       0.0241
     14 CAW       -34.9830    0.2215  -15.2584 C.3         1 SY9      -0.0311
     15 CAX       -33.7555   -0.6713  -15.4972 C.3         1 SY9      -0.0400
     16 NAY       -32.9410    0.0069  -16.5436 N.4         1 SY9       0.2407
     17 CAS       -32.3691   -0.9150  -17.5854 C.3         1 SY9      -0.0074
     18 CAR       -33.2787   -1.1254  -18.7220 C.2         1 SY9      -0.0310
     19 CAQ       -33.4566   -2.3639  -19.2283 C.2         1 SY9      -0.0782
     20 CAP       -34.3932   -2.6924  -20.2826 C.3         1 SY9       0.0552
     21 OAO       -35.7414   -2.4789  -19.8388 O.3         1 SY9      -0.3712
     22 CAM       -36.3089   -1.1525  -19.9265 C.3         1 SY9       0.0708
     23 CAL       -37.8009   -1.2785  -19.4431 C.3         1 SY9       0.0233
     24 CAI       -38.3416   -0.0631  -18.6155 C.3         1 SY9       0.1466
     25 OAJ       -39.5612   -0.4027  -17.9497 O.3         1 SY9      -0.3686
     26 H1        -33.3815    2.0724  -16.5427 H           1 SY9       0.0728
     27 H2        -32.5110    1.6063  -18.8017 H           1 SY9       0.0333
     28 H3        -34.1568    2.2321  -18.9083 H           1 SY9       0.0333
     29 H4        -33.7312    0.1488  -20.3378 H           1 SY9       0.0453
     30 H5        -35.8979    0.8987  -19.5916 H           1 SY9       0.0364
     31 H6        -36.0228   -1.0665  -17.2717 H           1 SY9       0.0464
     32 H7        -39.3869    2.3805  -17.4528 H           1 SY9       0.0603
     33 H8        -39.0747    4.5054  -16.3240 H           1 SY9       0.0812
     34 H9        -36.9365    5.0463  -15.3062 H           1 SY9       0.0608
     35 H10       -35.1001    3.4634  -15.4107 H           1 SY9       0.0786
     36 H11       -35.8405   -0.3614  -14.9219 H           1 SY9       0.0203
     37 H12       -34.7464    0.9689  -14.4939 H           1 SY9       0.0203
     38 H13       -34.0911   -1.6680  -15.8095 H           1 SY9       0.0805
     39 H14       -33.1740   -0.7776  -14.5785 H           1 SY9       0.0805
     40 H15       -32.1354    0.4083  -16.0585 H           1 SY9       0.2039
     41 H16       -32.0437   -1.8492  -17.1166 H           1 SY9       0.0964
     42 H17       -31.4629   -0.4458  -17.9768 H           1 SY9       0.0964
     43 H18       -32.9323   -3.1160  -18.8438 H           1 SY9       0.0266
     44 H19       -34.3084   -3.7570  -20.5124 H           1 SY9       0.0635
     45 H20       -34.1667   -2.1437  -21.2020 H           1 SY9       0.0635
     46 H21       -36.3246   -0.8661  -20.9832 H           1 SY9       0.0604
     47 H22       -37.8911   -2.1677  -18.8105 H           1 SY9       0.0338
     48 H23       -38.4490   -1.4387  -20.3082 H           1 SY9       0.0338
     49 H24       -38.5868    0.7271  -19.3329 H           1 SY9       0.0886
     50 H25       -39.5655   -1.3766  -17.8357 H           1 SY9       0.2123
@<TRIPOS>BOND
     1     1     2   1
     2     1    13   1
     3     1    16   1
     4     2     3   1
     5     3     4   1
     6     3    18   1
     7     4     5   1
     8     4    22   1
     9     5     6   1
    10     5    13   1
    11     6     7   1
    12     6    24   1
    13     7     8  ar
    14     7    12  ar
    15     8     9  ar
    16     9    10  ar
    17    10    11  ar
    18    11    12  ar
    19    12    13   1
    20    13    14   1
    21    14    15   1
    22    15    16   1
    23    16    17   1
    24    17    18   1
    25    18    19   2
    26    19    20   1
    27    20    21   1
    28    21    22   1
    29    22    23   1
    30    23    24   1
    31    24    25   1
    32     1    26   1
    33     2    27   1
    34     2    28   1
    35     3    29   1
    36     4    30   1
    37     5    31   1
    38     8    32   1
    39     9    33   1
    40    10    34   1
    41    11    35   1
    42    14    36   1
    43    14    37   1
    44    15    38   1
    45    15    39   1
    46    16    40   1
    47    17    41   1
    48    17    42   1
    49    19    43   1
    50    20    44   1
    51    20    45   1
    52    22    46   1
    53    23    47   1
    54    23    48   1
    55    24    49   1
    56    25    50   1
@<TRIPOS>SUBSTRUCTURE
     1  SY9      1

