@<TRIPOS>MOLECULE
2xys_ligand_047
    50    56
SMALL
GAST_HUCK
****
This file was generated by PARSER (from files_GN.cpp)

@<TRIPOS>ATOM
      1 CAV       -45.8872   -2.5466  -17.6265 C.3         1 SY9      -0.0392
      2 CAU       -46.3307   -1.1934  -18.2422 C.3         1 SY9      -0.0074
      3 CAT       -46.8756   -1.5031  -19.6755 C.3         1 SY9      -0.0009
      4 CAN       -48.2404   -2.2374  -19.4749 C.3         1 SY9       0.0127
      5 CAK       -48.0924   -3.5656  -18.6553 C.3         1 SY9       0.0377
      6 NAH       -49.3841   -3.7600  -18.0596 N.pl3       1 SY9      -0.2664
      7 CAA       -49.3079   -3.6103  -16.7181 C.ar        1 SY9       0.0752
      8 CAF       -50.3464   -3.5553  -15.7630 C.ar        1 SY9      -0.0107
      9 CAE       -50.0276   -3.3440  -14.4066 C.ar        1 SY9      -0.0448
     10 CAD       -48.6850   -3.1878  -14.0100 C.ar        1 SY9      -0.0454
     11 CAC       -47.6509   -3.2417  -14.9640 C.ar        1 SY9      -0.0502
     12 CAB       -47.9754   -3.4386  -16.3217 C.ar        1 SY9      -0.0229
     13 CAG       -47.0562   -3.5726  -17.4693 C.3         1 SY9       0.0241
     14 CAW       -46.2539   -4.8951  -17.3776 C.3         1 SY9      -0.0311
     15 CAX       -45.1249   -4.7004  -18.4030 C.3         1 SY9      -0.0400
     16 NAY       -44.8499   -3.2379  -18.4659 N.4         1 SY9       0.2407
     17 CAS       -44.6496   -2.6955  -19.8557 C.3         1 SY9      -0.0074
     18 CAR       -45.9091   -2.2709  -20.4905 C.2         1 SY9      -0.0310
     19 CAQ       -46.1598   -2.5872  -21.7780 C.2         1 SY9      -0.0782
     20 CAP       -47.4046   -2.3047  -22.4643 C.3         1 SY9       0.0552
     21 OAO       -48.4791   -3.0507  -21.8699 O.3         1 SY9      -0.3712
     22 CAM       -49.1607   -2.5033  -20.7191 C.3         1 SY9       0.0708
     23 CAL       -50.3296   -3.5034  -20.3784 C.3         1 SY9       0.0233
     24 CAI       -50.5971   -3.7290  -18.8522 C.3         1 SY9       0.1466
     25 OAJ       -51.3389   -4.9316  -18.6517 O.3         1 SY9      -0.3686
     26 H1        -45.4360   -2.3440  -16.6497 H           1 SY9       0.0728
     27 H2        -45.4772   -0.5152  -18.2956 H           1 SY9       0.0333
     28 H3        -47.0778   -0.7114  -17.6048 H           1 SY9       0.0333
     29 H4        -47.0588   -0.5408  -20.1624 H           1 SY9       0.0453
     30 H5        -48.8301   -1.5344  -18.8684 H           1 SY9       0.0364
     31 H6        -47.8767   -4.3891  -19.3443 H           1 SY9       0.0464
     32 H7        -51.3233   -3.6599  -16.0441 H           1 SY9       0.0603
     33 H8        -50.7727   -3.3055  -13.7072 H           1 SY9       0.0812
     34 H9        -48.4552   -3.0391  -13.0262 H           1 SY9       0.0608
     35 H10       -46.6785   -3.1443  -14.6677 H           1 SY9       0.0786
     36 H11       -46.8605   -5.7773  -17.6017 H           1 SY9       0.0203
     37 H12       -45.8156   -5.0212  -16.3823 H           1 SY9       0.0203
     38 H13       -45.4478   -5.1038  -19.3678 H           1 SY9       0.0805
     39 H14       -44.2239   -5.2344  -18.0923 H           1 SY9       0.0805
     40 H15       -43.9574   -3.0969  -17.9863 H           1 SY9       0.2039
     41 H16       -44.0850   -3.4134  -20.4595 H           1 SY9       0.0964
     42 H17       -44.0131   -1.8108  -19.7763 H           1 SY9       0.0964
     43 H18       -45.4623   -3.0709  -22.2976 H           1 SY9       0.0266
     44 H19       -47.3234   -2.6414  -23.5004 H           1 SY9       0.0635
     45 H20       -47.6076   -1.2305  -22.4897 H           1 SY9       0.0635
     46 H21       -49.6091   -1.5501  -21.0202 H           1 SY9       0.0604
     47 H22       -50.0910   -4.4818  -20.8067 H           1 SY9       0.0338
     48 H23       -51.2513   -3.1689  -20.8623 H           1 SY9       0.0338
     49 H24       -51.2168   -2.8976  -18.5056 H           1 SY9       0.0886
     50 H25       -50.6988   -5.6610  -18.7917 H           1 SY9       0.2123
@<TRIPOS>BOND
     1     1     2   1
     2     1    13   1
     3     1    16   1
     4     2     3   1
     5     3     4   1
     6     3    18   1
     7     4     5   1
     8     4    22   1
     9     5     6   1
    10     5    13   1
    11     6     7   1
    12     6    24   1
    13     7     8  ar
    14     7    12  ar
    15     8     9  ar
    16     9    10  ar
    17    10    11  ar
    18    11    12  ar
    19    12    13   1
    20    13    14   1
    21    14    15   1
    22    15    16   1
    23    16    17   1
    24    17    18   1
    25    18    19   2
    26    19    20   1
    27    20    21   1
    28    21    22   1
    29    22    23   1
    30    23    24   1
    31    24    25   1
    32     1    26   1
    33     2    27   1
    34     2    28   1
    35     3    29   1
    36     4    30   1
    37     5    31   1
    38     8    32   1
    39     9    33   1
    40    10    34   1
    41    11    35   1
    42    14    36   1
    43    14    37   1
    44    15    38   1
    45    15    39   1
    46    16    40   1
    47    17    41   1
    48    17    42   1
    49    19    43   1
    50    20    44   1
    51    20    45   1
    52    22    46   1
    53    23    47   1
    54    23    48   1
    55    24    49   1
    56    25    50   1
@<TRIPOS>SUBSTRUCTURE
     1  SY9      1

