@<TRIPOS>MOLECULE
2xys_ligand_032
    50    56
SMALL
GAST_HUCK
****
This file was generated by PARSER (from files_GN.cpp)

@<TRIPOS>ATOM
      1 CAV       -35.1594    3.5080  -13.6384 C.3         1 SY9      -0.0392
      2 CAU       -35.3266    2.0462  -13.1360 C.3         1 SY9      -0.0074
      3 CAT       -35.5710    1.1614  -14.4036 C.3         1 SY9      -0.0009
      4 CAN       -34.2011    1.1252  -15.1463 C.3         1 SY9       0.0127
      5 CAK       -33.8474    2.5426  -15.7100 C.3         1 SY9       0.0377
      6 NAH       -32.4626    2.4683  -16.0479 N.pl3       1 SY9      -0.2664
      7 CAA       -31.7352    3.1523  -15.1357 C.ar        1 SY9       0.0752
      8 CAF       -30.3371    3.2217  -14.9648 C.ar        1 SY9      -0.0107
      9 CAE       -29.8039    3.9647  -13.8922 C.ar        1 SY9      -0.0448
     10 CAD       -30.6616    4.6425  -13.0033 C.ar        1 SY9      -0.0454
     11 CAC       -32.0585    4.5854  -13.1783 C.ar        1 SY9      -0.0502
     12 CAB       -32.5876    3.8298  -14.2448 C.ar        1 SY9      -0.0229
     13 CAG       -33.9990    3.7168  -14.6749 C.3         1 SY9       0.0241
     14 CAW       -34.4628    5.0403  -15.3391 C.3         1 SY9      -0.0311
     15 CAX       -35.9936    4.9061  -15.4146 C.3         1 SY9      -0.0400
     16 NAY       -36.4122    3.9749  -14.3296 N.4         1 SY9       0.2407
     17 CAS       -37.3677    2.9012  -14.7836 C.3         1 SY9      -0.0074
     18 CAR       -36.6706    1.6896  -15.2549 C.2         1 SY9      -0.0310
     19 CAQ       -36.9786    1.1581  -16.4547 C.2         1 SY9      -0.0782
     20 CAP       -36.3416   -0.0045  -17.0503 C.3         1 SY9       0.0552
     21 OAO       -34.9522    0.2150  -17.3515 O.3         1 SY9      -0.3712
     22 CAM       -34.0226    0.0523  -16.2606 C.3         1 SY9       0.0708
     23 CAL       -32.5520    0.1067  -16.7932 C.3         1 SY9       0.0233
     24 CAI       -32.0349    1.5490  -17.0835 C.3         1 SY9       0.1466
     25 OAJ       -32.5185    1.9917  -18.3593 O.3         1 SY9      -0.3686
     26 H1        -34.9992    4.1521  -12.7679 H           1 SY9       0.0728
     27 H2        -36.1841    1.9767  -12.4631 H           1 SY9       0.0333
     28 H3        -34.4482    1.7355  -12.5623 H           1 SY9       0.0333
     29 H4        -35.8210    0.1516  -14.0714 H           1 SY9       0.0453
     30 H5        -33.4449    0.8536  -14.3953 H           1 SY9       0.0364
     31 H6        -34.4408    2.7512  -16.6057 H           1 SY9       0.0464
     32 H7        -29.7059    2.7296  -15.5982 H           1 SY9       0.0603
     33 H8        -28.7909    4.0162  -13.7618 H           1 SY9       0.0812
     34 H9        -30.2663    5.1891  -12.2355 H           1 SY9       0.0608
     35 H10       -32.6746    5.0990  -12.5433 H           1 SY9       0.0786
     36 H11       -34.0291    5.1853  -16.3336 H           1 SY9       0.0203
     37 H12       -34.2033    5.9040  -14.7195 H           1 SY9       0.0203
     38 H13       -36.2641    4.5396  -16.4114 H           1 SY9       0.0805
     39 H14       -36.4785    5.8724  -15.2715 H           1 SY9       0.0805
     40 H15       -36.9358    4.5282  -13.6373 H           1 SY9       0.2039
     41 H16       -37.9795    2.6115  -13.9251 H           1 SY9       0.0964
     42 H17       -38.0744    3.3039  -15.5154 H           1 SY9       0.0964
     43 H18       -37.7106    1.5733  -16.9888 H           1 SY9       0.0266
     44 H19       -36.8288   -0.2274  -18.0034 H           1 SY9       0.0635
     45 H20       -36.4847   -0.8791  -16.4141 H           1 SY9       0.0635
     46 H21       -34.1626   -0.9435  -15.8254 H           1 SY9       0.0604
     47 H22       -32.4641   -0.5065  -17.6993 H           1 SY9       0.0338
     48 H23       -31.8984   -0.3287  -16.0407 H           1 SY9       0.0338
     49 H24       -30.9507    1.5278  -17.1711 H           1 SY9       0.0886
     50 H25       -33.4571    1.7352  -18.3984 H           1 SY9       0.2123
@<TRIPOS>BOND
     1     1     2   1
     2     1    13   1
     3     1    16   1
     4     2     3   1
     5     3     4   1
     6     3    18   1
     7     4     5   1
     8     4    22   1
     9     5     6   1
    10     5    13   1
    11     6     7   1
    12     6    24   1
    13     7     8  ar
    14     7    12  ar
    15     8     9  ar
    16     9    10  ar
    17    10    11  ar
    18    11    12  ar
    19    12    13   1
    20    13    14   1
    21    14    15   1
    22    15    16   1
    23    16    17   1
    24    17    18   1
    25    18    19   2
    26    19    20   1
    27    20    21   1
    28    21    22   1
    29    22    23   1
    30    23    24   1
    31    24    25   1
    32     1    26   1
    33     2    27   1
    34     2    28   1
    35     3    29   1
    36     4    30   1
    37     5    31   1
    38     8    32   1
    39     9    33   1
    40    10    34   1
    41    11    35   1
    42    14    36   1
    43    14    37   1
    44    15    38   1
    45    15    39   1
    46    16    40   1
    47    17    41   1
    48    17    42   1
    49    19    43   1
    50    20    44   1
    51    20    45   1
    52    22    46   1
    53    23    47   1
    54    23    48   1
    55    24    49   1
    56    25    50   1
@<TRIPOS>SUBSTRUCTURE
     1  SY9      1

