@<TRIPOS>MOLECULE
2xys_ligand_088
    50    56
SMALL
GAST_HUCK
****
This file was generated by PARSER (from files_GN.cpp)

@<TRIPOS>ATOM
      1 CAV       -44.7001    9.2221  -18.8277 C.3         1 SY9      -0.0392
      2 CAU       -44.6685   10.6176  -18.1502 C.3         1 SY9      -0.0074
      3 CAT       -45.6657   10.5422  -16.9463 C.3         1 SY9      -0.0009
      4 CAN       -44.9710    9.6081  -15.9096 C.3         1 SY9       0.0127
      5 CAK       -44.8498    8.1456  -16.4445 C.3         1 SY9       0.0377
      6 NAH       -43.8847    7.5157  -15.6021 N.pl3       1 SY9      -0.2664
      7 CAA       -42.7160    7.3528  -16.2568 C.ar        1 SY9       0.0752
      8 CAF       -41.4630    6.9206  -15.7742 C.ar        1 SY9      -0.0107
      9 CAE       -40.3759    6.8052  -16.6657 C.ar        1 SY9      -0.0448
     10 CAD       -40.5522    7.1018  -18.0321 C.ar        1 SY9      -0.0454
     11 CAC       -41.8066    7.5277  -18.5092 C.ar        1 SY9      -0.0502
     12 CAB       -42.8820    7.6888  -17.6077 C.ar        1 SY9      -0.0229
     13 CAG       -44.2953    8.0163  -17.9086 C.3         1 SY9       0.0241
     14 CAW       -44.9465    6.8512  -18.6887 C.3         1 SY9      -0.0311
     15 CAX       -46.2739    7.4279  -19.2078 C.3         1 SY9      -0.0400
     16 NAY       -46.0831    8.8991  -19.3287 N.4         1 SY9       0.2407
     17 CAS       -47.2135    9.7239  -18.7584 C.3         1 SY9      -0.0074
     18 CAR       -47.0106   10.0648  -17.3405 C.2         1 SY9      -0.0310
     19 CAQ       -48.0000    9.8892  -16.4406 C.2         1 SY9      -0.0782
     20 CAP       -47.8897   10.0808  -15.0049 C.3         1 SY9       0.0552
     21 OAO       -46.9269    9.1885  -14.4033 O.3         1 SY9      -0.3712
     22 CAM       -45.5445    9.6011  -14.4651 C.3         1 SY9       0.0708
     23 CAL       -44.6329    8.6955  -13.5724 C.3         1 SY9       0.0233
     24 CAI       -44.1884    7.3417  -14.2053 C.3         1 SY9       0.1466
     25 OAJ       -45.2173    6.3624  -14.0981 O.3         1 SY9      -0.3686
     26 H1        -44.0257    9.2590  -19.6889 H           1 SY9       0.0728
     27 H2        -44.9842   11.3845  -18.8631 H           1 SY9       0.0333
     28 H3        -43.6486   10.8765  -17.8440 H           1 SY9       0.0333
     29 H4        -45.7630   11.5418  -16.5208 H           1 SY9       0.0453
     30 H5        -43.9538    9.9997  -15.7849 H           1 SY9       0.0364
     31 H6        -45.8190    7.6417  -16.3595 H           1 SY9       0.0464
     32 H7        -41.3275    6.6896  -14.7880 H           1 SY9       0.0603
     33 H8        -39.4651    6.4918  -16.3238 H           1 SY9       0.0812
     34 H9        -39.7743    6.9908  -18.6828 H           1 SY9       0.0608
     35 H10       -41.9411    7.6835  -19.5080 H           1 SY9       0.0786
     36 H11       -45.1047    5.9645  -18.0679 H           1 SY9       0.0203
     37 H12       -44.3243    6.5745  -19.5464 H           1 SY9       0.0203
     38 H13       -47.0751    7.1614  -18.5126 H           1 SY9       0.0805
     39 H14       -46.5154    7.0080  -20.1879 H           1 SY9       0.0805
     40 H15       -46.0717    9.1024  -20.3313 H           1 SY9       0.2039
     41 H16       -47.2476   10.6615  -19.3151 H           1 SY9       0.0964
     42 H17       -48.1744    9.2347  -18.9530 H           1 SY9       0.0964
     43 H18       -48.8889    9.5956  -16.7733 H           1 SY9       0.0266
     44 H19       -48.8523    9.8477  -14.5422 H           1 SY9       0.0635
     45 H20       -47.6812   11.1292  -14.7804 H           1 SY9       0.0635
     46 H21       -45.4757   10.6149  -14.0540 H           1 SY9       0.0604
     47 H22       -45.1254    8.5111  -12.6157 H           1 SY9       0.0338
     48 H23       -43.7165    9.2568  -13.3596 H           1 SY9       0.0338
     49 H24       -43.3281    6.9614  -13.6475 H           1 SY9       0.0886
     50 H25       -44.8604    5.5762  -14.5722 H           1 SY9       0.2123
@<TRIPOS>BOND
     1     1     2   1
     2     1    13   1
     3     1    16   1
     4     2     3   1
     5     3     4   1
     6     3    18   1
     7     4     5   1
     8     4    22   1
     9     5     6   1
    10     5    13   1
    11     6     7   1
    12     6    24   1
    13     7     8  ar
    14     7    12  ar
    15     8     9  ar
    16     9    10  ar
    17    10    11  ar
    18    11    12  ar
    19    12    13   1
    20    13    14   1
    21    14    15   1
    22    15    16   1
    23    16    17   1
    24    17    18   1
    25    18    19   2
    26    19    20   1
    27    20    21   1
    28    21    22   1
    29    22    23   1
    30    23    24   1
    31    24    25   1
    32     1    26   1
    33     2    27   1
    34     2    28   1
    35     3    29   1
    36     4    30   1
    37     5    31   1
    38     8    32   1
    39     9    33   1
    40    10    34   1
    41    11    35   1
    42    14    36   1
    43    14    37   1
    44    15    38   1
    45    15    39   1
    46    16    40   1
    47    17    41   1
    48    17    42   1
    49    19    43   1
    50    20    44   1
    51    20    45   1
    52    22    46   1
    53    23    47   1
    54    23    48   1
    55    24    49   1
    56    25    50   1
@<TRIPOS>SUBSTRUCTURE
     1  SY9      1

