@<TRIPOS>MOLECULE
2xys_ligand_035
    50    56
SMALL
GAST_HUCK
****
This file was generated by PARSER (from files_GN.cpp)

@<TRIPOS>ATOM
      1 CAV       -31.8093    3.8402  -14.8987 C.3         1 SY9      -0.0392
      2 CAU       -30.5178    3.0659  -15.2830 C.3         1 SY9      -0.0074
      3 CAT       -30.0267    2.3416  -13.9832 C.3         1 SY9      -0.0009
      4 CAN       -31.0725    1.2108  -13.7287 C.3         1 SY9       0.0127
      5 CAK       -32.4741    1.8149  -13.3740 C.3         1 SY9       0.0377
      6 NAH       -33.3995    0.7389  -13.5230 N.pl3       1 SY9      -0.2664
      7 CAA       -34.1090    0.8963  -14.6618 C.ar        1 SY9       0.0752
      8 CAF       -34.9936    0.0060  -15.3033 C.ar        1 SY9      -0.0107
      9 CAE       -35.5963    0.3818  -16.5189 C.ar        1 SY9      -0.0448
     10 CAD       -35.3119    1.6379  -17.0925 C.ar        1 SY9      -0.0454
     11 CAC       -34.4350    2.5320  -16.4473 C.ar        1 SY9      -0.0502
     12 CAB       -33.8283    2.1490  -15.2333 C.ar        1 SY9      -0.0229
     13 CAG       -32.9688    2.9511  -14.3366 C.3         1 SY9       0.0241
     14 CAW       -33.8103    4.0279  -13.6027 C.3         1 SY9      -0.0311
     15 CAX       -32.7532    4.9571  -12.9808 C.3         1 SY9      -0.0400
     16 NAY       -31.5309    4.8557  -13.8266 N.4         1 SY9       0.2407
     17 CAS       -30.2411    4.6877  -13.0626 C.3         1 SY9      -0.0074
     18 CAR       -29.8889    3.2731  -12.8360 C.2         1 SY9      -0.0310
     19 CAQ       -29.5416    2.8559  -11.5985 C.2         1 SY9      -0.0782
     20 CAP       -29.3073    1.4790  -11.2022 C.3         1 SY9       0.0552
     21 OAO       -30.4786    0.6525  -11.3665 O.3         1 SY9      -0.3712
     22 CAM       -30.6989    0.1153  -12.6872 C.3         1 SY9       0.0708
     23 CAL       -31.8305   -0.9634  -12.6516 C.3         1 SY9       0.0233
     24 CAI       -33.2888   -0.4060  -12.6504 C.3         1 SY9       0.1466
     25 OAJ       -33.6830   -0.0097  -11.3374 O.3         1 SY9      -0.3686
     26 H1        -32.1652    4.3745  -15.7815 H           1 SY9       0.0728
     27 H2        -29.7564    3.7640  -15.6419 H           1 SY9       0.0333
     28 H3        -30.7194    2.3717  -16.1037 H           1 SY9       0.0333
     29 H4        -29.0523    1.8913  -14.1957 H           1 SY9       0.0453
     30 H5        -31.1619    0.6580  -14.6740 H           1 SY9       0.0364
     31 H6        -32.4732    2.1694  -12.3379 H           1 SY9       0.0464
     32 H7        -35.1924   -0.9120  -14.9064 H           1 SY9       0.0603
     33 H8        -36.2402   -0.2601  -16.9872 H           1 SY9       0.0812
     34 H9        -35.7520    1.9034  -17.9756 H           1 SY9       0.0608
     35 H10       -34.2532    3.4514  -16.8549 H           1 SY9       0.0786
     36 H11       -34.4737    3.6037  -12.8422 H           1 SY9       0.0203
     37 H12       -34.4180    4.5988  -14.3130 H           1 SY9       0.0203
     38 H13       -32.5711    4.6427  -11.9501 H           1 SY9       0.0805
     39 H14       -33.1064    5.9908  -12.9621 H           1 SY9       0.0805
     40 H15       -31.4462    5.7523  -14.3067 H           1 SY9       0.2039
     41 H16       -29.4428    5.1317  -13.6625 H           1 SY9       0.0964
     42 H17       -30.2708    5.2778  -12.1420 H           1 SY9       0.0964
     43 H18       -29.4569    3.5352  -10.8773 H           1 SY9       0.0266
     44 H19       -29.0657    1.4552  -10.1365 H           1 SY9       0.0635
     45 H20       -28.4382    1.0766  -11.7302 H           1 SY9       0.0635
     46 H21       -29.7859   -0.3956  -13.0149 H           1 SY9       0.0604
     47 H22       -31.6872   -1.6061  -11.7831 H           1 SY9       0.0338
     48 H23       -31.7210   -1.5949  -13.5388 H           1 SY9       0.0338
     49 H24       -33.9633   -1.2080  -12.9546 H           1 SY9       0.0886
     50 H25       -33.6654   -0.8302  -10.8007 H           1 SY9       0.2123
@<TRIPOS>BOND
     1     1     2   1
     2     1    13   1
     3     1    16   1
     4     2     3   1
     5     3     4   1
     6     3    18   1
     7     4     5   1
     8     4    22   1
     9     5     6   1
    10     5    13   1
    11     6     7   1
    12     6    24   1
    13     7     8  ar
    14     7    12  ar
    15     8     9  ar
    16     9    10  ar
    17    10    11  ar
    18    11    12  ar
    19    12    13   1
    20    13    14   1
    21    14    15   1
    22    15    16   1
    23    16    17   1
    24    17    18   1
    25    18    19   2
    26    19    20   1
    27    20    21   1
    28    21    22   1
    29    22    23   1
    30    23    24   1
    31    24    25   1
    32     1    26   1
    33     2    27   1
    34     2    28   1
    35     3    29   1
    36     4    30   1
    37     5    31   1
    38     8    32   1
    39     9    33   1
    40    10    34   1
    41    11    35   1
    42    14    36   1
    43    14    37   1
    44    15    38   1
    45    15    39   1
    46    16    40   1
    47    17    41   1
    48    17    42   1
    49    19    43   1
    50    20    44   1
    51    20    45   1
    52    22    46   1
    53    23    47   1
    54    23    48   1
    55    24    49   1
    56    25    50   1
@<TRIPOS>SUBSTRUCTURE
     1  SY9      1

