@<TRIPOS>MOLECULE
2xys_ligand_012
    50    56
SMALL
GAST_HUCK
****
This file was generated by PARSER (from files_GN.cpp)

@<TRIPOS>ATOM
      1 CAV       -50.2718   -2.2100  -18.4089 C.3         1 SY9      -0.0392
      2 CAU       -49.5035   -1.3160  -17.3945 C.3         1 SY9      -0.0074
      3 CAT       -48.6869   -2.2766  -16.4687 C.3         1 SY9      -0.0009
      4 CAN       -47.5529   -2.8486  -17.3747 C.3         1 SY9       0.0127
      5 CAK       -48.1489   -3.7613  -18.4978 C.3         1 SY9       0.0377
      6 NAH       -47.0983   -3.9306  -19.4484 N.pl3       1 SY9      -0.2664
      7 CAA       -47.3424   -3.1730  -20.5416 C.ar        1 SY9       0.0752
      8 CAF       -46.5137   -2.8847  -21.6458 C.ar        1 SY9      -0.0107
      9 CAE       -46.9835   -2.0268  -22.6590 C.ar        1 SY9      -0.0448
     10 CAD       -48.2727   -1.4631  -22.5718 C.ar        1 SY9      -0.0454
     11 CAC       -49.1042   -1.7574  -21.4733 C.ar        1 SY9      -0.0502
     12 CAB       -48.6241   -2.6054  -20.4545 C.ar        1 SY9      -0.0229
     13 CAG       -49.3555   -3.1327  -19.2839 C.3         1 SY9       0.0241
     14 CAW       -50.3879   -4.1954  -19.7353 C.3         1 SY9      -0.0311
     15 CAX       -51.2688   -4.4058  -18.4911 C.3         1 SY9      -0.0400
     16 NAY       -51.2191   -3.1405  -17.7006 N.4         1 SY9       0.2407
     17 CAS       -50.9746   -3.3373  -16.2242 C.3         1 SY9      -0.0074
     18 CAR       -49.5397   -3.3317  -15.8671 C.2         1 SY9      -0.0310
     19 CAQ       -49.0299   -4.3140  -15.0922 C.2         1 SY9      -0.0782
     20 CAP       -47.6261   -4.4936  -14.7584 C.3         1 SY9       0.0552
     21 OAO       -46.8057   -4.7452  -15.9198 O.3         1 SY9      -0.3712
     22 CAM       -46.3773   -3.5868  -16.6669 C.3         1 SY9       0.0708
     23 CAL       -45.3095   -3.9971  -17.7370 C.3         1 SY9       0.0233
     24 CAI       -45.8931   -4.6185  -19.0473 C.3         1 SY9       0.1466
     25 OAJ       -46.2030   -5.9991  -18.8542 O.3         1 SY9      -0.3686
     26 H1        -50.8667   -1.5590  -19.0580 H           1 SY9       0.0728
     27 H2        -50.2080   -0.7336  -16.7970 H           1 SY9       0.0333
     28 H3        -48.8712   -0.5983  -17.9246 H           1 SY9       0.0333
     29 H4        -48.2441   -1.6761  -15.6702 H           1 SY9       0.0453
     30 H5        -47.0699   -1.9839  -17.8505 H           1 SY9       0.0364
     31 H6        -48.4342   -4.7308  -18.0764 H           1 SY9       0.0464
     32 H7        -45.5771   -3.2838  -21.7206 H           1 SY9       0.0603
     33 H8        -46.3895   -1.8153  -23.4638 H           1 SY9       0.0812
     34 H9        -48.6107   -0.8485  -23.3155 H           1 SY9       0.0608
     35 H10       -50.0473   -1.3699  -21.4282 H           1 SY9       0.0786
     36 H11       -49.9211   -5.1295  -20.0616 H           1 SY9       0.0203
     37 H12       -51.0091   -3.8138  -20.5528 H           1 SY9       0.0203
     38 H13       -50.8853   -5.2647  -17.9271 H           1 SY9       0.0805
     39 H14       -52.2984   -4.6286  -18.7858 H           1 SY9       0.0805
     40 H15       -52.1522   -2.7173  -17.7664 H           1 SY9       0.2039
     41 H16       -51.4417   -2.4982  -15.7012 H           1 SY9       0.0964
     42 H17       -51.5036   -4.2300  -15.8686 H           1 SY9       0.0964
     43 H18       -49.6575   -4.9923  -14.7246 H           1 SY9       0.0266
     44 H19       -47.5299   -5.3750  -14.1207 H           1 SY9       0.0635
     45 H20       -47.2636   -3.6432  -14.1747 H           1 SY9       0.0635
     46 H21       -45.8849   -2.8894  -15.9787 H           1 SY9       0.0604
     47 H22       -44.5880   -4.6867  -17.2933 H           1 SY9       0.0338
     48 H23       -44.7569   -3.0960  -18.0209 H           1 SY9       0.0338
     49 H24       -45.1297   -4.5721  -19.8264 H           1 SY9       0.0886
     50 H25       -45.3447   -6.4340  -18.6558 H           1 SY9       0.2123
@<TRIPOS>BOND
     1     1     2   1
     2     1    13   1
     3     1    16   1
     4     2     3   1
     5     3     4   1
     6     3    18   1
     7     4     5   1
     8     4    22   1
     9     5     6   1
    10     5    13   1
    11     6     7   1
    12     6    24   1
    13     7     8  ar
    14     7    12  ar
    15     8     9  ar
    16     9    10  ar
    17    10    11  ar
    18    11    12  ar
    19    12    13   1
    20    13    14   1
    21    14    15   1
    22    15    16   1
    23    16    17   1
    24    17    18   1
    25    18    19   2
    26    19    20   1
    27    20    21   1
    28    21    22   1
    29    22    23   1
    30    23    24   1
    31    24    25   1
    32     1    26   1
    33     2    27   1
    34     2    28   1
    35     3    29   1
    36     4    30   1
    37     5    31   1
    38     8    32   1
    39     9    33   1
    40    10    34   1
    41    11    35   1
    42    14    36   1
    43    14    37   1
    44    15    38   1
    45    15    39   1
    46    16    40   1
    47    17    41   1
    48    17    42   1
    49    19    43   1
    50    20    44   1
    51    20    45   1
    52    22    46   1
    53    23    47   1
    54    23    48   1
    55    24    49   1
    56    25    50   1
@<TRIPOS>SUBSTRUCTURE
     1  SY9      1

