@<TRIPOS>MOLECULE
2xys_ligand_026
    50    56
SMALL
GAST_HUCK
****
This file was generated by PARSER (from files_GN.cpp)

@<TRIPOS>ATOM
      1 CAV       -48.5930   -4.4543  -19.9444 C.3         1 SY9      -0.0392
      2 CAU       -49.5338   -3.2187  -20.0297 C.3         1 SY9      -0.0074
      3 CAT       -50.1189   -2.9974  -18.5930 C.3         1 SY9      -0.0009
      4 CAN       -48.9187   -2.4818  -17.7372 C.3         1 SY9       0.0127
      5 CAK       -47.8312   -3.5969  -17.5801 C.3         1 SY9       0.0377
      6 NAH       -46.6617   -2.9229  -17.1111 N.pl3       1 SY9      -0.2664
      7 CAA       -45.7668   -2.8042  -18.1169 C.ar        1 SY9       0.0752
      8 CAF       -44.5623   -2.0722  -18.1708 C.ar        1 SY9      -0.0107
      9 CAE       -43.8022   -2.0830  -19.3559 C.ar        1 SY9      -0.0448
     10 CAD       -44.2437   -2.8141  -20.4797 C.ar        1 SY9      -0.0454
     11 CAC       -45.4439   -3.5479  -20.4216 C.ar        1 SY9      -0.0502
     12 CAB       -46.2080   -3.5268  -19.2380 C.ar        1 SY9      -0.0229
     13 CAG       -47.4190   -4.3094  -18.9168 C.3         1 SY9       0.0241
     14 CAW       -47.0523   -5.8005  -18.7031 C.3         1 SY9      -0.0311
     15 CAX       -48.4140   -6.5155  -18.6984 C.3         1 SY9      -0.0400
     16 NAY       -49.3464   -5.6820  -19.5106 N.4         1 SY9       0.2407
     17 CAS       -50.6948   -5.4452  -18.8782 C.3         1 SY9      -0.0074
     18 CAR       -50.7324   -4.2311  -18.0394 C.2         1 SY9      -0.0310
     19 CAQ       -51.2277   -4.2930  -16.7860 C.2         1 SY9      -0.0782
     20 CAP       -51.2265   -3.2083  -15.8182 C.3         1 SY9       0.0552
     21 OAO       -49.8915   -2.7972  -15.4525 O.3         1 SY9      -0.3712
     22 CAM       -49.2385   -1.8665  -16.3424 C.3         1 SY9       0.0708
     23 CAL       -47.9157   -1.3275  -15.7012 C.3         1 SY9       0.0233
     24 CAI       -46.6856   -2.2877  -15.8149 C.3         1 SY9       0.1466
     25 OAJ       -46.7357   -3.3051  -14.8137 O.3         1 SY9      -0.3686
     26 H1        -48.1863   -4.6451  -20.9428 H           1 SY9       0.0728
     27 H2        -50.3394   -3.4098  -20.7441 H           1 SY9       0.0333
     28 H3        -48.9859   -2.3476  -20.4008 H           1 SY9       0.0333
     29 H4        -50.8830   -2.2161  -18.6563 H           1 SY9       0.0453
     30 H5        -48.4797   -1.6456  -18.2993 H           1 SY9       0.0364
     31 H6        -48.1638   -4.3352  -16.8418 H           1 SY9       0.0464
     32 H7        -44.2539   -1.5048  -17.3802 H           1 SY9       0.0603
     33 H8        -42.9330   -1.5467  -19.4052 H           1 SY9       0.0812
     34 H9        -43.6713   -2.8459  -21.3261 H           1 SY9       0.0608
     35 H10       -45.7387   -4.1120  -21.2211 H           1 SY9       0.0786
     36 H11       -46.5022   -5.9738  -17.7730 H           1 SY9       0.0203
     37 H12       -46.4514   -6.1797  -19.5365 H           1 SY9       0.0203
     38 H13       -48.7462   -6.6270  -17.6628 H           1 SY9       0.0805
     39 H14       -48.3293   -7.5141  -19.1344 H           1 SY9       0.0805
     40 H15       -49.5330   -6.2175  -20.3616 H           1 SY9       0.2039
     41 H16       -51.4157   -5.3037  -19.6861 H           1 SY9       0.0964
     42 H17       -51.0263   -6.3442  -18.3502 H           1 SY9       0.0964
     43 H18       -51.6237   -5.1527  -16.4748 H           1 SY9       0.0266
     44 H19       -51.7004   -3.5590  -14.8986 H           1 SY9       0.0635
     45 H20       -51.8334   -2.3764  -16.1851 H           1 SY9       0.0635
     46 H21       -49.8963   -1.0000  -16.4798 H           1 SY9       0.0604
     47 H22       -48.0910   -1.0786  -14.6535 H           1 SY9       0.0338
     48 H23       -47.6654   -0.3917  -16.2104 H           1 SY9       0.0338
     49 H24       -45.7711   -1.7187  -15.6321 H           1 SY9       0.0886
     50 H25       -46.5839   -2.8384  -13.9598 H           1 SY9       0.2123
@<TRIPOS>BOND
     1     1     2   1
     2     1    13   1
     3     1    16   1
     4     2     3   1
     5     3     4   1
     6     3    18   1
     7     4     5   1
     8     4    22   1
     9     5     6   1
    10     5    13   1
    11     6     7   1
    12     6    24   1
    13     7     8  ar
    14     7    12  ar
    15     8     9  ar
    16     9    10  ar
    17    10    11  ar
    18    11    12  ar
    19    12    13   1
    20    13    14   1
    21    14    15   1
    22    15    16   1
    23    16    17   1
    24    17    18   1
    25    18    19   2
    26    19    20   1
    27    20    21   1
    28    21    22   1
    29    22    23   1
    30    23    24   1
    31    24    25   1
    32     1    26   1
    33     2    27   1
    34     2    28   1
    35     3    29   1
    36     4    30   1
    37     5    31   1
    38     8    32   1
    39     9    33   1
    40    10    34   1
    41    11    35   1
    42    14    36   1
    43    14    37   1
    44    15    38   1
    45    15    39   1
    46    16    40   1
    47    17    41   1
    48    17    42   1
    49    19    43   1
    50    20    44   1
    51    20    45   1
    52    22    46   1
    53    23    47   1
    54    23    48   1
    55    24    49   1
    56    25    50   1
@<TRIPOS>SUBSTRUCTURE
     1  SY9      1

