@<TRIPOS>MOLECULE
2xys_ligand_058
    50    56
SMALL
GAST_HUCK
****
This file was generated by PARSER (from files_GN.cpp)

@<TRIPOS>ATOM
      1 CAV       -33.4657   -1.1924  -18.1428 C.3         1 SY9      -0.0392
      2 CAU       -34.4579   -2.3627  -18.3970 C.3         1 SY9      -0.0074
      3 CAT       -35.7843   -1.7210  -18.9292 C.3         1 SY9      -0.0009
      4 CAN       -35.4445   -1.2166  -20.3674 C.3         1 SY9       0.0127
      5 CAK       -34.4069   -0.0443  -20.3112 C.3         1 SY9       0.0377
      6 NAH       -33.9140    0.0926  -21.6433 N.pl3       1 SY9      -0.2664
      7 CAA       -32.6660   -0.4214  -21.7241 C.ar        1 SY9       0.0752
      8 CAF       -31.8590   -0.6646  -22.8554 C.ar        1 SY9      -0.0107
      9 CAE       -30.5893   -1.2518  -22.6864 C.ar        1 SY9      -0.0448
     10 CAD       -30.1265   -1.5889  -21.3983 C.ar        1 SY9      -0.0454
     11 CAC       -30.9283   -1.3372  -20.2682 C.ar        1 SY9      -0.0502
     12 CAB       -32.2041   -0.7634  -20.4421 C.ar        1 SY9      -0.0229
     13 CAG       -33.1546   -0.3148  -19.4037 C.3         1 SY9       0.0241
     14 CAW       -32.6278    0.9733  -18.7208 C.3         1 SY9      -0.0311
     15 CAX       -33.5350    1.1324  -17.4890 C.3         1 SY9      -0.0400
     16 NAY       -34.0098   -0.2320  -17.1205 N.4         1 SY9       0.2407
     17 CAS       -35.4879   -0.3273  -16.8383 C.3         1 SY9      -0.0074
     18 CAR       -36.2830   -0.6411  -18.0410 C.2         1 SY9      -0.0310
     19 CAQ       -37.3684    0.1035  -18.3442 C.2         1 SY9      -0.0782
     20 CAP       -38.1730   -0.0254  -19.5471 C.3         1 SY9       0.0552
     21 OAO       -37.4266    0.2628  -20.7489 O.3         1 SY9      -0.3712
     22 CAM       -36.6377   -0.8191  -21.2875 C.3         1 SY9       0.0708
     23 CAL       -36.0883   -0.4375  -22.7029 C.3         1 SY9       0.0233
     24 CAI       -34.8295    0.4867  -22.6898 C.3         1 SY9       0.1466
     25 OAJ       -35.2284    1.8397  -22.4785 O.3         1 SY9      -0.3686
     26 H1        -32.5355   -1.6124  -17.7475 H           1 SY9       0.0728
     27 H2        -34.6451   -2.9054  -17.4664 H           1 SY9       0.0333
     28 H3        -34.0263   -3.0830  -19.0980 H           1 SY9       0.0333
     29 H4        -36.5398   -2.5098  -18.9918 H           1 SY9       0.0453
     30 H5        -34.9805   -2.0648  -20.8894 H           1 SY9       0.0364
     31 H6        -34.9074    0.8789  -20.0006 H           1 SY9       0.0464
     32 H7        -32.1834   -0.4275  -23.7937 H           1 SY9       0.0603
     33 H8        -29.9996   -1.4325  -23.5019 H           1 SY9       0.0812
     34 H9        -29.2005   -2.0066  -21.2829 H           1 SY9       0.0608
     35 H10       -30.5782   -1.5570  -19.3339 H           1 SY9       0.0786
     36 H11       -32.6747    1.8497  -19.3743 H           1 SY9       0.0203
     37 H12       -31.5916    0.8438  -18.3903 H           1 SY9       0.0203
     38 H13       -34.3580    1.8093  -17.7398 H           1 SY9       0.0805
     39 H14       -32.9793    1.5683  -16.6555 H           1 SY9       0.0805
     40 H15       -33.5473   -0.4633  -16.2380 H           1 SY9       0.2039
     41 H16       -35.6345   -1.1464  -16.1305 H           1 SY9       0.0964
     42 H17       -35.8289    0.5719  -16.3150 H           1 SY9       0.0964
     43 H18       -37.6423    0.8197  -17.7099 H           1 SY9       0.0266
     44 H19       -38.9827    0.7073  -19.5075 H           1 SY9       0.0635
     45 H20       -38.6439   -1.0119  -19.5806 H           1 SY9       0.0635
     46 H21       -37.2881   -1.6907  -21.4245 H           1 SY9       0.0604
     47 H22       -36.8828    0.0284  -23.2919 H           1 SY9       0.0338
     48 H23       -35.8107   -1.3627  -23.2172 H           1 SY9       0.0338
     49 H24       -34.3563    0.4479  -23.6726 H           1 SY9       0.0886
     50 H25       -36.1788    1.7893  -22.2428 H           1 SY9       0.2123
@<TRIPOS>BOND
     1     1     2   1
     2     1    13   1
     3     1    16   1
     4     2     3   1
     5     3     4   1
     6     3    18   1
     7     4     5   1
     8     4    22   1
     9     5     6   1
    10     5    13   1
    11     6     7   1
    12     6    24   1
    13     7     8  ar
    14     7    12  ar
    15     8     9  ar
    16     9    10  ar
    17    10    11  ar
    18    11    12  ar
    19    12    13   1
    20    13    14   1
    21    14    15   1
    22    15    16   1
    23    16    17   1
    24    17    18   1
    25    18    19   2
    26    19    20   1
    27    20    21   1
    28    21    22   1
    29    22    23   1
    30    23    24   1
    31    24    25   1
    32     1    26   1
    33     2    27   1
    34     2    28   1
    35     3    29   1
    36     4    30   1
    37     5    31   1
    38     8    32   1
    39     9    33   1
    40    10    34   1
    41    11    35   1
    42    14    36   1
    43    14    37   1
    44    15    38   1
    45    15    39   1
    46    16    40   1
    47    17    41   1
    48    17    42   1
    49    19    43   1
    50    20    44   1
    51    20    45   1
    52    22    46   1
    53    23    47   1
    54    23    48   1
    55    24    49   1
    56    25    50   1
@<TRIPOS>SUBSTRUCTURE
     1  SY9      1

