@<TRIPOS>MOLECULE
2xys_ligand_085
    50    56
SMALL
GAST_HUCK
****
This file was generated by PARSER (from files_GN.cpp)

@<TRIPOS>ATOM
      1 CAV       -35.6670    1.5165  -13.6579 C.3         1 SY9      -0.0392
      2 CAU       -35.0666    2.3579  -12.4963 C.3         1 SY9      -0.0074
      3 CAT       -33.7181    2.9561  -13.0222 C.3         1 SY9      -0.0009
      4 CAN       -34.1334    4.0349  -14.0719 C.3         1 SY9       0.0127
      5 CAK       -34.8069    3.3642  -15.3170 C.3         1 SY9       0.0377
      6 NAH       -35.4473    4.4266  -16.0221 N.pl3       1 SY9      -0.2664
      7 CAA       -36.7831    4.3688  -15.8212 C.ar        1 SY9       0.0752
      8 CAF       -37.7912    5.2933  -16.1664 C.ar        1 SY9      -0.0107
      9 CAE       -39.1281    5.0246  -15.8112 C.ar        1 SY9      -0.0448
     10 CAD       -39.4570    3.8401  -15.1219 C.ar        1 SY9      -0.0454
     11 CAC       -38.4521    2.9125  -14.7854 C.ar        1 SY9      -0.0502
     12 CAB       -37.1137    3.1915  -15.1289 C.ar        1 SY9      -0.0229
     13 CAG       -35.9299    2.3207  -14.9774 C.3         1 SY9       0.0241
     14 CAW       -35.9892    1.1588  -16.0020 C.3         1 SY9      -0.0311
     15 CAX       -34.8923    0.1924  -15.5241 C.3         1 SY9      -0.0400
     16 NAY       -34.7389    0.4010  -14.0563 N.4         1 SY9       0.2407
     17 CAS       -33.3120    0.5227  -13.5847 C.3         1 SY9      -0.0074
     18 CAR       -32.8232    1.9149  -13.5868 C.2         1 SY9      -0.0310
     19 CAQ       -31.6414    2.2132  -14.1696 C.2         1 SY9      -0.0782
     20 CAP       -31.0954    3.5488  -14.3382 C.3         1 SY9       0.0552
     21 OAO       -31.9179    4.3826  -15.1817 O.3         1 SY9      -0.3712
     22 CAM       -33.0356    5.0354  -14.5428 C.3         1 SY9       0.0708
     23 CAL       -33.6798    6.0826  -15.5116 C.3         1 SY9       0.0233
     24 CAI       -34.6345    5.4787  -16.5890 C.3         1 SY9       0.1466
     25 OAJ       -33.8715    4.9456  -17.6695 O.3         1 SY9      -0.3686
     26 H1        -36.6014    1.0675  -13.3075 H           1 SY9       0.0728
     27 H2        -34.8851    1.7204  -11.6263 H           1 SY9       0.0333
     28 H3        -35.7749    3.1289  -12.1783 H           1 SY9       0.0333
     29 H4        -33.2142    3.4438  -12.1823 H           1 SY9       0.0453
     30 H5        -34.8781    4.6742  -13.5780 H           1 SY9       0.0364
     31 H6        -34.0407    2.9036  -15.9496 H           1 SY9       0.0464
     32 H7        -37.5659    6.1560  -16.6634 H           1 SY9       0.0603
     33 H8        -39.8637    5.6909  -16.0567 H           1 SY9       0.0812
     34 H9        -40.4306    3.6478  -14.8756 H           1 SY9       0.0608
     35 H10       -38.6981    2.0423  -14.3103 H           1 SY9       0.0786
     36 H11       -35.8170    1.4907  -17.0304 H           1 SY9       0.0203
     37 H12       -36.9582    0.6517  -15.9608 H           1 SY9       0.0203
     38 H13       -33.9702    0.4019  -16.0759 H           1 SY9       0.0805
     39 H14       -35.1784   -0.8431  -15.7228 H           1 SY9       0.0805
     40 H15       -35.1040   -0.4428  -13.6099 H           1 SY9       0.2039
     41 H16       -33.2765    0.1686  -12.5518 H           1 SY9       0.0964
     42 H17       -32.6709   -0.1630  -14.1480 H           1 SY9       0.0964
     43 H18       -31.0949    1.4677  -14.5381 H           1 SY9       0.0266
     44 H19       -30.1265    3.4710  -14.8374 H           1 SY9       0.0635
     45 H20       -30.9094    4.0054  -13.3620 H           1 SY9       0.0635
     46 H21       -32.6649    5.5930  -13.6752 H           1 SY9       0.0604
     47 H22       -32.8934    6.6631  -16.0000 H           1 SY9       0.0338
     48 H23       -34.2638    6.7831  -14.9105 H           1 SY9       0.0338
     49 H24       -35.2490    6.2800  -17.0027 H           1 SY9       0.0886
     50 H25       -34.5040    4.3965  -18.1789 H           1 SY9       0.2123
@<TRIPOS>BOND
     1     1     2   1
     2     1    13   1
     3     1    16   1
     4     2     3   1
     5     3     4   1
     6     3    18   1
     7     4     5   1
     8     4    22   1
     9     5     6   1
    10     5    13   1
    11     6     7   1
    12     6    24   1
    13     7     8  ar
    14     7    12  ar
    15     8     9  ar
    16     9    10  ar
    17    10    11  ar
    18    11    12  ar
    19    12    13   1
    20    13    14   1
    21    14    15   1
    22    15    16   1
    23    16    17   1
    24    17    18   1
    25    18    19   2
    26    19    20   1
    27    20    21   1
    28    21    22   1
    29    22    23   1
    30    23    24   1
    31    24    25   1
    32     1    26   1
    33     2    27   1
    34     2    28   1
    35     3    29   1
    36     4    30   1
    37     5    31   1
    38     8    32   1
    39     9    33   1
    40    10    34   1
    41    11    35   1
    42    14    36   1
    43    14    37   1
    44    15    38   1
    45    15    39   1
    46    16    40   1
    47    17    41   1
    48    17    42   1
    49    19    43   1
    50    20    44   1
    51    20    45   1
    52    22    46   1
    53    23    47   1
    54    23    48   1
    55    24    49   1
    56    25    50   1
@<TRIPOS>SUBSTRUCTURE
     1  SY9      1

