@<TRIPOS>MOLECULE
2xys_ligand_066
    50    56
SMALL
GAST_HUCK
****
This file was generated by PARSER (from files_GN.cpp)

@<TRIPOS>ATOM
      1 CAV       -47.2237   -1.2011  -17.6770 C.3         1 SY9      -0.0392
      2 CAU       -46.8302   -1.0609  -19.1746 C.3         1 SY9      -0.0074
      3 CAT       -45.5727   -1.9676  -19.3963 C.3         1 SY9      -0.0009
      4 CAN       -46.0946   -3.4339  -19.2908 C.3         1 SY9       0.0127
      5 CAK       -46.5749   -3.7451  -17.8329 C.3         1 SY9       0.0377
      6 NAH       -47.3375   -4.9486  -17.9338 N.pl3       1 SY9      -0.2664
      7 CAA       -48.6569   -4.6577  -17.8592 C.ar        1 SY9       0.0752
      8 CAF       -49.7834   -5.4734  -18.1000 C.ar        1 SY9      -0.0107
      9 CAE       -51.0732   -4.9141  -18.0080 C.ar        1 SY9      -0.0448
     10 CAD       -51.2355   -3.5541  -17.6782 C.ar        1 SY9      -0.0454
     11 CAC       -50.1134   -2.7440  -17.4227 C.ar        1 SY9      -0.0502
     12 CAB       -48.8270   -3.3041  -17.5308 C.ar        1 SY9      -0.0229
     13 CAG       -47.5348   -2.6662  -17.2175 C.3         1 SY9       0.0241
     14 CAW       -47.3660   -2.5193  -15.6832 C.3         1 SY9      -0.0311
     15 CAX       -46.1751   -1.5573  -15.5340 C.3         1 SY9      -0.0400
     16 NAY       -46.1128   -0.7388  -16.7774 N.4         1 SY9       0.2407
     17 CAS       -44.7472   -0.6389  -17.4051 C.3         1 SY9      -0.0074
     18 CAR       -44.4874   -1.6731  -18.4283 C.2         1 SY9      -0.0310
     19 CAQ       -43.3281   -2.3670  -18.4104 C.2         1 SY9      -0.0782
     20 CAP       -43.0089   -3.4932  -19.2705 C.3         1 SY9       0.0552
     21 OAO       -43.8980   -4.6129  -19.0707 O.3         1 SY9      -0.3712
     22 CAM       -45.1489   -4.5673  -19.7904 C.3         1 SY9       0.0708
     23 CAL       -45.8934   -5.9406  -19.6856 C.3         1 SY9       0.0233
     24 CAI       -46.6825   -6.1636  -18.3556 C.3         1 SY9       0.1466
     25 OAJ       -45.8060   -6.6222  -17.3258 O.3         1 SY9      -0.3686
     26 H1        -48.0935   -0.5633  -17.4918 H           1 SY9       0.0728
     27 H2        -46.5916   -0.0173  -19.4031 H           1 SY9       0.0333
     28 H3        -47.6715   -1.3414  -19.8163 H           1 SY9       0.0333
     29 H4        -45.2102   -1.7940  -20.4136 H           1 SY9       0.0453
     30 H5        -46.9617   -3.4993  -19.9632 H           1 SY9       0.0364
     31 H6        -45.7106   -3.8944  -17.1771 H           1 SY9       0.0464
     32 H7        -49.6795   -6.4593  -18.3433 H           1 SY9       0.0603
     33 H8        -51.8952   -5.4978  -18.1830 H           1 SY9       0.0812
     34 H9        -52.1686   -3.1499  -17.6135 H           1 SY9       0.0608
     35 H10       -50.2352   -1.7664  -17.1564 H           1 SY9       0.0786
     36 H11       -47.1768   -3.4753  -15.1857 H           1 SY9       0.0203
     37 H12       -48.2559   -2.0621  -15.2348 H           1 SY9       0.0203
     38 H13       -45.2656   -2.1414  -15.3716 H           1 SY9       0.0805
     39 H14       -46.3138   -0.9036  -14.6687 H           1 SY9       0.0805
     40 H15       -46.3528    0.2158  -16.4982 H           1 SY9       0.2039
     41 H16       -44.7089    0.3317  -17.8998 H           1 SY9       0.0964
     42 H17       -43.9762   -0.5964  -16.6302 H           1 SY9       0.0964
     43 H18       -42.6330   -2.1084  -17.7477 H           1 SY9       0.0266
     44 H19       -42.0060   -3.8496  -19.0252 H           1 SY9       0.0635
     45 H20       -42.9797   -3.1644  -20.3145 H           1 SY9       0.0635
     46 H21       -44.9334   -4.4048  -20.8525 H           1 SY9       0.0604
     47 H22       -45.1811   -6.7573  -19.8313 H           1 SY9       0.0338
     48 H23       -46.6128   -5.9955  -20.5096 H           1 SY9       0.0338
     49 H24       -47.4078   -6.9626  -18.5138 H           1 SY9       0.0886
     50 H25       -45.0561   -5.9919  -17.3057 H           1 SY9       0.2123
@<TRIPOS>BOND
     1     1     2   1
     2     1    13   1
     3     1    16   1
     4     2     3   1
     5     3     4   1
     6     3    18   1
     7     4     5   1
     8     4    22   1
     9     5     6   1
    10     5    13   1
    11     6     7   1
    12     6    24   1
    13     7     8  ar
    14     7    12  ar
    15     8     9  ar
    16     9    10  ar
    17    10    11  ar
    18    11    12  ar
    19    12    13   1
    20    13    14   1
    21    14    15   1
    22    15    16   1
    23    16    17   1
    24    17    18   1
    25    18    19   2
    26    19    20   1
    27    20    21   1
    28    21    22   1
    29    22    23   1
    30    23    24   1
    31    24    25   1
    32     1    26   1
    33     2    27   1
    34     2    28   1
    35     3    29   1
    36     4    30   1
    37     5    31   1
    38     8    32   1
    39     9    33   1
    40    10    34   1
    41    11    35   1
    42    14    36   1
    43    14    37   1
    44    15    38   1
    45    15    39   1
    46    16    40   1
    47    17    41   1
    48    17    42   1
    49    19    43   1
    50    20    44   1
    51    20    45   1
    52    22    46   1
    53    23    47   1
    54    23    48   1
    55    24    49   1
    56    25    50   1
@<TRIPOS>SUBSTRUCTURE
     1  SY9      1

