@<TRIPOS>MOLECULE
2xys_ligand_079
    50    56
SMALL
GAST_HUCK
****
This file was generated by PARSER (from files_GN.cpp)

@<TRIPOS>ATOM
      1 CAV       -35.8940    3.2036  -15.1183 C.3         1 SY9      -0.0392
      2 CAU       -35.7162    3.2749  -16.6584 C.3         1 SY9      -0.0074
      3 CAT       -36.4405    2.0175  -17.2506 C.3         1 SY9      -0.0009
      4 CAN       -37.9670    2.2896  -17.0505 C.3         1 SY9       0.0127
      5 CAK       -38.3305    2.3115  -15.5330 C.3         1 SY9       0.0377
      6 NAH       -39.6283    2.8955  -15.4516 N.pl3       1 SY9      -0.2664
      7 CAA       -39.5202    4.1596  -14.9897 C.ar        1 SY9       0.0752
      8 CAF       -40.4937    5.1750  -14.9019 C.ar        1 SY9      -0.0107
      9 CAE       -40.1310    6.4382  -14.3940 C.ar        1 SY9      -0.0448
     10 CAD       -38.8061    6.6853  -13.9817 C.ar        1 SY9      -0.0454
     11 CAC       -37.8360    5.6689  -14.0663 C.ar        1 SY9      -0.0502
     12 CAB       -38.1996    4.4084  -14.5770 C.ar        1 SY9      -0.0229
     13 CAG       -37.3840    3.1787  -14.6337 C.3         1 SY9       0.0241
     14 CAW       -37.2006    2.5804  -13.2147 C.3         1 SY9      -0.0311
     15 CAX       -36.0981    1.5264  -13.3981 C.3         1 SY9      -0.0400
     16 NAY       -35.2745    1.9514  -14.5626 N.4         1 SY9       0.2407
     17 CAS       -34.9769    0.8555  -15.5541 C.3         1 SY9      -0.0074
     18 CAR       -35.9905    0.7586  -16.6197 C.2         1 SY9      -0.0310
     19 CAQ       -36.5308   -0.4361  -16.9347 C.2         1 SY9      -0.0782
     20 CAP       -37.6139   -0.6613  -17.8795 C.3         1 SY9       0.0552
     21 OAO       -38.8438   -0.0142  -17.4857 O.3         1 SY9      -0.3712
     22 CAM       -38.9681    1.3784  -17.8266 C.3         1 SY9       0.0708
     23 CAL       -40.4256    1.8791  -17.5647 C.3         1 SY9       0.0233
     24 CAI       -40.7439    2.2198  -16.0725 C.3         1 SY9       0.1466
     25 OAJ       -41.0408    1.0173  -15.3634 O.3         1 SY9      -0.3686
     26 H1        -35.3786    4.0607  -14.6749 H           1 SY9       0.0728
     27 H2        -34.6548    3.2622  -16.9214 H           1 SY9       0.0333
     28 H3        -36.1195    4.2183  -17.0344 H           1 SY9       0.0333
     29 H4        -36.2099    1.9610  -18.3176 H           1 SY9       0.0453
     30 H5        -38.1629    3.2955  -17.4424 H           1 SY9       0.0364
     31 H6        -38.3648    1.2941  -15.1561 H           1 SY9       0.0464
     32 H7        -41.4558    5.0069  -15.1977 H           1 SY9       0.0603
     33 H8        -40.8305    7.1806  -14.3278 H           1 SY9       0.0812
     34 H9        -38.5495    7.6017  -13.6119 H           1 SY9       0.0608
     35 H10       -36.8892    5.8358  -13.7293 H           1 SY9       0.0786
     36 H11       -38.1208    2.1440  -12.8128 H           1 SY9       0.0203
     37 H12       -36.8380    3.3390  -12.5160 H           1 SY9       0.0203
     38 H13       -36.5637    0.5552  -13.5531 H           1 SY9       0.0805
     39 H14       -35.4739    1.4532  -12.5069 H           1 SY9       0.0805
     40 H15       -34.3684    2.2279  -14.1794 H           1 SY9       0.2039
     41 H16       -34.0258    1.0988  -16.0338 H           1 SY9       0.0964
     42 H17       -34.8077   -0.0919  -15.0311 H           1 SY9       0.0964
     43 H18       -36.1848   -1.2368  -16.4632 H           1 SY9       0.0266
     44 H19       -37.8416   -1.7275  -17.9182 H           1 SY9       0.0635
     45 H20       -37.2976   -0.3751  -18.8854 H           1 SY9       0.0635
     46 H21       -38.7937    1.4754  -18.9022 H           1 SY9       0.0604
     47 H22       -41.1409    1.1426  -17.9386 H           1 SY9       0.0338
     48 H23       -40.5766    2.7937  -18.1485 H           1 SY9       0.0338
     49 H24       -41.6492    2.8287  -16.0483 H           1 SY9       0.0886
     50 H25       -41.4260    1.3092  -14.5105 H           1 SY9       0.2123
@<TRIPOS>BOND
     1     1     2   1
     2     1    13   1
     3     1    16   1
     4     2     3   1
     5     3     4   1
     6     3    18   1
     7     4     5   1
     8     4    22   1
     9     5     6   1
    10     5    13   1
    11     6     7   1
    12     6    24   1
    13     7     8  ar
    14     7    12  ar
    15     8     9  ar
    16     9    10  ar
    17    10    11  ar
    18    11    12  ar
    19    12    13   1
    20    13    14   1
    21    14    15   1
    22    15    16   1
    23    16    17   1
    24    17    18   1
    25    18    19   2
    26    19    20   1
    27    20    21   1
    28    21    22   1
    29    22    23   1
    30    23    24   1
    31    24    25   1
    32     1    26   1
    33     2    27   1
    34     2    28   1
    35     3    29   1
    36     4    30   1
    37     5    31   1
    38     8    32   1
    39     9    33   1
    40    10    34   1
    41    11    35   1
    42    14    36   1
    43    14    37   1
    44    15    38   1
    45    15    39   1
    46    16    40   1
    47    17    41   1
    48    17    42   1
    49    19    43   1
    50    20    44   1
    51    20    45   1
    52    22    46   1
    53    23    47   1
    54    23    48   1
    55    24    49   1
    56    25    50   1
@<TRIPOS>SUBSTRUCTURE
     1  SY9      1

