@<TRIPOS>MOLECULE
2xys_ligand_025
    50    56
SMALL
GAST_HUCK
****
This file was generated by PARSER (from files_GN.cpp)

@<TRIPOS>ATOM
      1 CAV       -48.7803    4.4401  -22.1747 C.3         1 SY9      -0.0392
      2 CAU       -49.5688    4.6097  -23.5055 C.3         1 SY9      -0.0074
      3 CAT       -51.0725    4.3137  -23.1810 C.3         1 SY9      -0.0009
      4 CAN       -51.5497    5.5266  -22.3205 C.3         1 SY9       0.0127
      5 CAK       -50.8162    5.5384  -20.9356 C.3         1 SY9       0.0377
      6 NAH       -51.0527    6.8335  -20.3889 N.pl3       1 SY9      -0.2664
      7 CAA       -49.9353    7.5875  -20.4991 C.ar        1 SY9       0.0752
      8 CAF       -49.7446    8.9662  -20.2695 C.ar        1 SY9      -0.0107
      9 CAE       -48.4727    9.5341  -20.4829 C.ar        1 SY9      -0.0448
     10 CAD       -47.3983    8.7327  -20.9220 C.ar        1 SY9      -0.0454
     11 CAC       -47.5868    7.3560  -21.1454 C.ar        1 SY9      -0.0502
     12 CAB       -48.8650    6.7942  -20.9461 C.ar        1 SY9      -0.0229
     13 CAG       -49.2576    5.3720  -21.0098 C.3         1 SY9       0.0241
     14 CAW       -48.6859    4.6052  -19.7904 C.3         1 SY9      -0.0311
     15 CAX       -48.9103    3.1279  -20.1492 C.3         1 SY9      -0.0400
     16 NAY       -48.9179    3.0423  -21.6378 N.4         1 SY9       0.2407
     17 CAS       -50.0406    2.2152  -22.2110 C.3         1 SY9      -0.0074
     18 CAR       -51.2522    3.0102  -22.4931 C.2         1 SY9      -0.0310
     19 CAQ       -52.4549    2.5875  -22.0453 C.2         1 SY9      -0.0782
     20 CAP       -53.7040    3.3215  -22.1551 C.3         1 SY9       0.0552
     21 OAO       -53.6826    4.5689  -21.4289 O.3         1 SY9      -0.3712
     22 CAM       -53.0839    5.6955  -22.1036 C.3         1 SY9       0.0708
     23 CAL       -53.3452    7.0100  -21.2929 C.3         1 SY9       0.0233
     24 CAI       -52.4092    7.2087  -20.0590 C.3         1 SY9       0.1466
     25 OAJ       -52.8767    6.3999  -18.9786 O.3         1 SY9      -0.3686
     26 H1        -47.7191    4.6174  -22.3751 H           1 SY9       0.0728
     27 H2        -49.1975    3.9051  -24.2549 H           1 SY9       0.0333
     28 H3        -49.4142    5.6124  -23.9143 H           1 SY9       0.0333
     29 H4        -51.6258    4.2994  -24.1249 H           1 SY9       0.0453
     30 H5        -51.2603    6.4307  -22.8742 H           1 SY9       0.0364
     31 H6        -51.2470    4.7716  -20.2829 H           1 SY9       0.0464
     32 H7        -50.5149    9.5578  -19.9545 H           1 SY9       0.0603
     33 H8        -48.3264   10.5310  -20.3148 H           1 SY9       0.0812
     34 H9        -46.4762    9.1502  -21.0649 H           1 SY9       0.0608
     35 H10       -46.7998    6.7717  -21.4357 H           1 SY9       0.0786
     36 H11       -49.1822    4.8677  -18.8531 H           1 SY9       0.0203
     37 H12       -47.6129    4.7924  -19.6787 H           1 SY9       0.0203
     38 H13       -49.8539    2.7944  -19.7061 H           1 SY9       0.0805
     39 H14       -48.1071    2.5089  -19.7434 H           1 SY9       0.0805
     40 H15       -48.0540    2.5560  -21.8865 H           1 SY9       0.2039
     41 H16       -49.6929    1.8040  -23.1617 H           1 SY9       0.0964
     42 H17       -50.2320    1.3468  -21.5721 H           1 SY9       0.0964
     43 H18       -52.5040    1.7094  -21.5795 H           1 SY9       0.0266
     44 H19       -54.5020    2.7238  -21.7081 H           1 SY9       0.0635
     45 H20       -53.9688    3.4614  -23.2068 H           1 SY9       0.0635
     46 H21       -53.5713    5.8198  -23.0774 H           1 SY9       0.0604
     47 H22       -54.3903    7.0424  -20.9730 H           1 SY9       0.0338
     48 H23       -53.1891    7.8600  -21.9642 H           1 SY9       0.0338
     49 H24       -52.4688    8.2483  -19.7302 H           1 SY9       0.0886
     50 H25       -52.2540    6.5670  -18.2397 H           1 SY9       0.2123
@<TRIPOS>BOND
     1     1     2   1
     2     1    13   1
     3     1    16   1
     4     2     3   1
     5     3     4   1
     6     3    18   1
     7     4     5   1
     8     4    22   1
     9     5     6   1
    10     5    13   1
    11     6     7   1
    12     6    24   1
    13     7     8  ar
    14     7    12  ar
    15     8     9  ar
    16     9    10  ar
    17    10    11  ar
    18    11    12  ar
    19    12    13   1
    20    13    14   1
    21    14    15   1
    22    15    16   1
    23    16    17   1
    24    17    18   1
    25    18    19   2
    26    19    20   1
    27    20    21   1
    28    21    22   1
    29    22    23   1
    30    23    24   1
    31    24    25   1
    32     1    26   1
    33     2    27   1
    34     2    28   1
    35     3    29   1
    36     4    30   1
    37     5    31   1
    38     8    32   1
    39     9    33   1
    40    10    34   1
    41    11    35   1
    42    14    36   1
    43    14    37   1
    44    15    38   1
    45    15    39   1
    46    16    40   1
    47    17    41   1
    48    17    42   1
    49    19    43   1
    50    20    44   1
    51    20    45   1
    52    22    46   1
    53    23    47   1
    54    23    48   1
    55    24    49   1
    56    25    50   1
@<TRIPOS>SUBSTRUCTURE
     1  SY9      1

