@<TRIPOS>MOLECULE
2xys_ligand_062
    50    56
SMALL
GAST_HUCK
****
This file was generated by PARSER (from files_GN.cpp)

@<TRIPOS>ATOM
      1 CAV       -43.5825    6.2239  -16.0019 C.3         1 SY9      -0.0392
      2 CAU       -44.0352    6.2072  -17.4868 C.3         1 SY9      -0.0074
      3 CAT       -44.6010    7.6300  -17.8049 C.3         1 SY9      -0.0009
      4 CAN       -43.3712    8.5928  -17.8385 C.3         1 SY9       0.0127
      5 CAK       -42.5879    8.6161  -16.4807 C.3         1 SY9       0.0377
      6 NAH       -41.2558    9.0082  -16.8417 N.pl3       1 SY9      -0.2664
      7 CAA       -40.3918    7.9923  -16.6285 C.ar        1 SY9       0.0752
      8 CAF       -39.0265    7.8946  -16.9706 C.ar        1 SY9      -0.0107
      9 CAE       -38.3250    6.7059  -16.6884 C.ar        1 SY9      -0.0448
     10 CAD       -38.9828    5.6237  -16.0699 C.ar        1 SY9      -0.0454
     11 CAC       -40.3456    5.7238  -15.7293 C.ar        1 SY9      -0.0502
     12 CAB       -41.0479    6.9113  -16.0248 C.ar        1 SY9      -0.0229
     13 CAG       -42.4467    7.2555  -15.7003 C.3         1 SY9       0.0241
     14 CAW       -42.6196    7.4234  -14.1687 C.3         1 SY9      -0.0311
     15 CAX       -44.1448    7.4250  -13.9802 C.3         1 SY9      -0.0400
     16 NAY       -44.7090    6.5832  -15.0725 N.4         1 SY9       0.2407
     17 CAS       -45.9470    7.1467  -15.7159 C.3         1 SY9      -0.0074
     18 CAR       -45.6462    8.0456  -16.8436 C.2         1 SY9      -0.0310
     19 CAQ       -46.3109    9.2114  -16.9777 C.2         1 SY9      -0.0782
     20 CAP       -46.0180   10.2112  -17.9856 C.3         1 SY9       0.0552
     21 OAO       -44.7050   10.7552  -17.7782 O.3         1 SY9      -0.3712
     22 CAM       -43.5650   10.0678  -18.3415 C.3         1 SY9       0.0708
     23 CAL       -42.3076   10.9626  -18.0237 C.3         1 SY9       0.0233
     24 CAI       -41.0041   10.1783  -17.6573 C.3         1 SY9       0.1466
     25 OAJ       -40.0833   11.0369  -16.9877 O.3         1 SY9      -0.3686
     26 H1        -43.2465    5.2161  -15.7385 H           1 SY9       0.0728
     27 H2        -44.8099    5.4490  -17.6317 H           1 SY9       0.0333
     28 H3        -43.1991    5.9362  -18.1380 H           1 SY9       0.0333
     29 H4        -45.0421    7.5838  -18.8058 H           1 SY9       0.0453
     30 H5        -42.7096    8.1494  -18.5968 H           1 SY9       0.0364
     31 H6        -43.0298    9.3763  -15.8276 H           1 SY9       0.0464
     32 H7        -38.5436    8.6736  -17.4217 H           1 SY9       0.0603
     33 H8        -37.3354    6.6280  -16.9328 H           1 SY9       0.0812
     34 H9        -38.4674    4.7655  -15.8622 H           1 SY9       0.0608
     35 H10       -40.8136    4.9428  -15.2659 H           1 SY9       0.0786
     36 H11       -42.1614    8.3403  -13.7863 H           1 SY9       0.0203
     37 H12       -42.1926    6.5719  -13.6282 H           1 SY9       0.0203
     38 H13       -44.5066    8.4576  -14.0205 H           1 SY9       0.0805
     39 H14       -44.4149    7.0061  -13.0079 H           1 SY9       0.0805
     40 H15       -45.0024    5.7082  -14.6312 H           1 SY9       0.2039
     41 H16       -46.5854    7.6106  -14.9568 H           1 SY9       0.0964
     42 H17       -46.5221    6.3067  -16.1124 H           1 SY9       0.0964
     43 H18       -47.0332    9.4296  -16.3287 H           1 SY9       0.0266
     44 H19       -46.7221   11.0399  -17.8801 H           1 SY9       0.0635
     45 H20       -46.1455    9.8078  -18.9937 H           1 SY9       0.0635
     46 H21       -43.6953   10.0417  -19.4292 H           1 SY9       0.0604
     47 H22       -42.5393   11.6049  -17.1683 H           1 SY9       0.0338
     48 H23       -42.1057   11.6260  -18.8691 H           1 SY9       0.0338
     49 H24       -40.5421    9.8552  -18.5957 H           1 SY9       0.0886
     50 H25       -40.0867   11.8678  -17.5098 H           1 SY9       0.2123
@<TRIPOS>BOND
     1     1     2   1
     2     1    13   1
     3     1    16   1
     4     2     3   1
     5     3     4   1
     6     3    18   1
     7     4     5   1
     8     4    22   1
     9     5     6   1
    10     5    13   1
    11     6     7   1
    12     6    24   1
    13     7     8  ar
    14     7    12  ar
    15     8     9  ar
    16     9    10  ar
    17    10    11  ar
    18    11    12  ar
    19    12    13   1
    20    13    14   1
    21    14    15   1
    22    15    16   1
    23    16    17   1
    24    17    18   1
    25    18    19   2
    26    19    20   1
    27    20    21   1
    28    21    22   1
    29    22    23   1
    30    23    24   1
    31    24    25   1
    32     1    26   1
    33     2    27   1
    34     2    28   1
    35     3    29   1
    36     4    30   1
    37     5    31   1
    38     8    32   1
    39     9    33   1
    40    10    34   1
    41    11    35   1
    42    14    36   1
    43    14    37   1
    44    15    38   1
    45    15    39   1
    46    16    40   1
    47    17    41   1
    48    17    42   1
    49    19    43   1
    50    20    44   1
    51    20    45   1
    52    22    46   1
    53    23    47   1
    54    23    48   1
    55    24    49   1
    56    25    50   1
@<TRIPOS>SUBSTRUCTURE
     1  SY9      1

