@<TRIPOS>MOLECULE
2xys_ligand_061
    50    56
SMALL
GAST_HUCK
****
This file was generated by PARSER (from files_GN.cpp)

@<TRIPOS>ATOM
      1 CAV       -46.9074   -3.2846  -17.1691 C.3         1 SY9      -0.0392
      2 CAU       -47.7667   -2.6510  -18.3007 C.3         1 SY9      -0.0074
      3 CAT       -49.1468   -3.3865  -18.2827 C.3         1 SY9      -0.0009
      4 CAN       -49.8518   -2.9006  -16.9728 C.3         1 SY9       0.0127
      5 CAK       -49.0907   -3.4222  -15.7059 C.3         1 SY9       0.0377
      6 NAH       -49.5942   -2.6574  -14.6097 N.pl3       1 SY9      -0.2664
      7 CAA       -48.6761   -1.7323  -14.2475 C.ar        1 SY9       0.0752
      8 CAF       -48.7837   -0.6508  -13.3453 C.ar        1 SY9      -0.0107
      9 CAE       -47.6839    0.2148  -13.1728 C.ar        1 SY9      -0.0448
     10 CAD       -46.5027    0.0251  -13.9118 C.ar        1 SY9      -0.0454
     11 CAC       -46.3812   -1.0742  -14.7770 C.ar        1 SY9      -0.0502
     12 CAB       -47.4765   -1.9426  -14.9530 C.ar        1 SY9      -0.0229
     13 CAG       -47.5455   -3.1870  -15.7366 C.3         1 SY9       0.0241
     14 CAW       -46.7724   -4.3158  -15.0107 C.3         1 SY9      -0.0311
     15 CAX       -46.6469   -5.4211  -16.0719 C.3         1 SY9      -0.0400
     16 NAY       -46.6976   -4.7550  -17.4052 N.4         1 SY9       0.2407
     17 CAS       -47.6258   -5.4076  -18.3987 C.3         1 SY9      -0.0074
     18 CAR       -48.9961   -4.8624  -18.3496 C.2         1 SY9      -0.0310
     19 CAQ       -50.0494   -5.7025  -18.2854 C.2         1 SY9      -0.0782
     20 CAP       -51.4337   -5.3038  -18.0965 C.3         1 SY9       0.0552
     21 OAO       -51.6482   -4.6207  -16.8403 O.3         1 SY9      -0.3712
     22 CAM       -51.3688   -3.2055  -16.8238 C.3         1 SY9       0.0708
     23 CAL       -51.8926   -2.5492  -15.5026 C.3         1 SY9       0.0233
     24 CAI       -50.9921   -2.7655  -14.2519 C.3         1 SY9       0.1466
     25 OAJ       -51.2454   -4.0495  -13.6735 O.3         1 SY9      -0.3686
     26 H1        -45.9264   -2.8020  -17.1716 H           1 SY9       0.0728
     27 H2        -47.2751   -2.7877  -19.2683 H           1 SY9       0.0333
     28 H3        -47.8621   -1.5716  -18.1503 H           1 SY9       0.0333
     29 H4        -49.7226   -3.0479  -19.1494 H           1 SY9       0.0453
     30 H5        -49.7983   -1.8041  -16.9833 H           1 SY9       0.0364
     31 H6        -49.3159   -4.4850  -15.5512 H           1 SY9       0.0464
     32 H7        -49.6485   -0.4700  -12.8417 H           1 SY9       0.0603
     33 H8        -47.7497    0.9946  -12.5144 H           1 SY9       0.0812
     34 H9        -45.7223    0.6719  -13.7875 H           1 SY9       0.0608
     35 H10       -45.4976   -1.2471  -15.2629 H           1 SY9       0.0786
     36 H11       -47.2781   -4.6706  -14.1083 H           1 SY9       0.0203
     37 H12       -45.7766   -3.9719  -14.7234 H           1 SY9       0.0203
     38 H13       -47.4618   -6.1373  -15.9295 H           1 SY9       0.0805
     39 H14       -45.7020   -5.9579  -15.9582 H           1 SY9       0.0805
     40 H15       -45.7605   -4.8482  -17.8034 H           1 SY9       0.2039
     41 H16       -47.2323   -5.2066  -19.3973 H           1 SY9       0.0964
     42 H17       -47.5891   -6.4968  -18.2860 H           1 SY9       0.0964
     43 H18       -49.8790   -6.6810  -18.3387 H           1 SY9       0.0266
     44 H19       -52.0531   -6.2036  -18.0690 H           1 SY9       0.0635
     45 H20       -51.7757   -4.7173  -18.9520 H           1 SY9       0.0635
     46 H21       -51.9104   -2.7275  -17.6483 H           1 SY9       0.0604
     47 H22       -52.9071   -2.8971  -15.2910 H           1 SY9       0.0338
     48 H23       -51.9573   -1.4714  -15.6623 H           1 SY9       0.0338
     49 H24       -51.2616   -2.0196  -13.5002 H           1 SY9       0.0886
     50 H25       -51.8140   -3.8777  -12.8882 H           1 SY9       0.2123
@<TRIPOS>BOND
     1     1     2   1
     2     1    13   1
     3     1    16   1
     4     2     3   1
     5     3     4   1
     6     3    18   1
     7     4     5   1
     8     4    22   1
     9     5     6   1
    10     5    13   1
    11     6     7   1
    12     6    24   1
    13     7     8  ar
    14     7    12  ar
    15     8     9  ar
    16     9    10  ar
    17    10    11  ar
    18    11    12  ar
    19    12    13   1
    20    13    14   1
    21    14    15   1
    22    15    16   1
    23    16    17   1
    24    17    18   1
    25    18    19   2
    26    19    20   1
    27    20    21   1
    28    21    22   1
    29    22    23   1
    30    23    24   1
    31    24    25   1
    32     1    26   1
    33     2    27   1
    34     2    28   1
    35     3    29   1
    36     4    30   1
    37     5    31   1
    38     8    32   1
    39     9    33   1
    40    10    34   1
    41    11    35   1
    42    14    36   1
    43    14    37   1
    44    15    38   1
    45    15    39   1
    46    16    40   1
    47    17    41   1
    48    17    42   1
    49    19    43   1
    50    20    44   1
    51    20    45   1
    52    22    46   1
    53    23    47   1
    54    23    48   1
    55    24    49   1
    56    25    50   1
@<TRIPOS>SUBSTRUCTURE
     1  SY9      1

