@<TRIPOS>MOLECULE
2xys_ligand_040
    50    56
SMALL
GAST_HUCK
****
This file was generated by PARSER (from files_GN.cpp)

@<TRIPOS>ATOM
      1 CAV       -43.3836    6.5453  -15.3169 C.3         1 SY9      -0.0392
      2 CAU       -42.4528    6.7593  -14.0929 C.3         1 SY9      -0.0074
      3 CAT       -41.1341    5.9666  -14.3841 C.3         1 SY9      -0.0009
      4 CAN       -40.3889    6.7644  -15.5009 C.3         1 SY9       0.0127
      5 CAK       -41.2427    6.8904  -16.8110 C.3         1 SY9       0.0377
      6 NAH       -40.7460    8.0865  -17.4340 N.pl3       1 SY9      -0.2664
      7 CAA       -41.7142    9.0292  -17.4698 C.ar        1 SY9       0.0752
      8 CAF       -41.6311   10.3771  -17.8789 C.ar        1 SY9      -0.0107
      9 CAE       -42.8005   11.1669  -17.8846 C.ar        1 SY9      -0.0448
     10 CAD       -44.0343   10.6097  -17.4894 C.ar        1 SY9      -0.0454
     11 CAC       -44.1020    9.2853  -17.0258 C.ar        1 SY9      -0.0502
     12 CAB       -42.9264    8.5055  -17.0055 C.ar        1 SY9      -0.0229
     13 CAG       -42.7997    7.0769  -16.6676 C.3         1 SY9       0.0241
     14 CAW       -43.5993    6.2326  -17.6913 C.3         1 SY9      -0.0311
     15 CAX       -43.6977    4.8577  -17.0211 C.3         1 SY9      -0.0400
     16 NAY       -43.6648    5.0865  -15.5528 N.4         1 SY9       0.2407
     17 CAS       -42.7923    4.1117  -14.8173 C.3         1 SY9      -0.0074
     18 CAR       -41.3915    4.5585  -14.7596 C.2         1 SY9      -0.0310
     19 CAQ       -40.3884    3.6982  -15.0311 C.2         1 SY9      -0.0782
     20 CAP       -38.9786    4.0471  -15.0258 C.3         1 SY9       0.0552
     21 OAO       -38.6928    4.9573  -16.0943 O.3         1 SY9      -0.3712
     22 CAM       -38.9192    6.3702  -15.8882 C.3         1 SY9       0.0708
     23 CAL       -38.4743    7.0526  -17.2329 C.3         1 SY9       0.0233
     24 CAI       -39.3256    8.2921  -17.6533 C.3         1 SY9       0.1466
     25 OAJ       -39.0698    8.5974  -19.0213 O.3         1 SY9      -0.3686
     26 H1        -44.3391    7.0357  -15.1086 H           1 SY9       0.0728
     27 H2        -42.9348    6.3754  -13.1886 H           1 SY9       0.0333
     28 H3        -42.2769    7.8279  -13.9253 H           1 SY9       0.0333
     29 H4        -40.5316    5.9898  -13.4711 H           1 SY9       0.0453
     30 H5        -40.2730    7.7694  -15.0705 H           1 SY9       0.0364
     31 H6        -41.0376    6.0283  -17.4525 H           1 SY9       0.0464
     32 H7        -40.7486   10.7809  -18.1864 H           1 SY9       0.0603
     33 H8        -42.7556   12.1371  -18.1983 H           1 SY9       0.0812
     34 H9        -44.8892   11.1674  -17.5399 H           1 SY9       0.0608
     35 H10       -44.9991    8.8919  -16.7400 H           1 SY9       0.0786
     36 H11       -43.1035    6.1818  -18.6655 H           1 SY9       0.0203
     37 H12       -44.6092    6.6267  -17.8375 H           1 SY9       0.0203
     38 H13       -42.8550    4.2498  -17.3616 H           1 SY9       0.0805
     39 H14       -44.6277    4.3538  -17.2936 H           1 SY9       0.0805
     40 H15       -44.6161    4.9234  -15.2151 H           1 SY9       0.2039
     41 H16       -42.9060    3.1072  -15.2387 H           1 SY9       0.0964
     42 H17       -43.1618    4.0433  -13.7918 H           1 SY9       0.0964
     43 H18       -40.6133    2.7535  -15.2460 H           1 SY9       0.0266
     44 H19       -38.3865    3.1484  -15.2134 H           1 SY9       0.0635
     45 H20       -38.6627    4.4375  -14.0562 H           1 SY9       0.0635
     46 H21       -38.2458    6.7105  -15.0941 H           1 SY9       0.0604
     47 H22       -38.5759    6.3242  -18.0424 H           1 SY9       0.0338
     48 H23       -37.4138    7.3182  -17.1910 H           1 SY9       0.0338
     49 H24       -39.0001    9.1445  -17.0542 H           1 SY9       0.0886
     50 H25       -39.3240    7.7896  -19.5133 H           1 SY9       0.2123
@<TRIPOS>BOND
     1     1     2   1
     2     1    13   1
     3     1    16   1
     4     2     3   1
     5     3     4   1
     6     3    18   1
     7     4     5   1
     8     4    22   1
     9     5     6   1
    10     5    13   1
    11     6     7   1
    12     6    24   1
    13     7     8  ar
    14     7    12  ar
    15     8     9  ar
    16     9    10  ar
    17    10    11  ar
    18    11    12  ar
    19    12    13   1
    20    13    14   1
    21    14    15   1
    22    15    16   1
    23    16    17   1
    24    17    18   1
    25    18    19   2
    26    19    20   1
    27    20    21   1
    28    21    22   1
    29    22    23   1
    30    23    24   1
    31    24    25   1
    32     1    26   1
    33     2    27   1
    34     2    28   1
    35     3    29   1
    36     4    30   1
    37     5    31   1
    38     8    32   1
    39     9    33   1
    40    10    34   1
    41    11    35   1
    42    14    36   1
    43    14    37   1
    44    15    38   1
    45    15    39   1
    46    16    40   1
    47    17    41   1
    48    17    42   1
    49    19    43   1
    50    20    44   1
    51    20    45   1
    52    22    46   1
    53    23    47   1
    54    23    48   1
    55    24    49   1
    56    25    50   1
@<TRIPOS>SUBSTRUCTURE
     1  SY9      1

