@<TRIPOS>MOLECULE
2xys_ligand_081
    50    56
SMALL
GAST_HUCK
****
This file was generated by PARSER (from files_GN.cpp)

@<TRIPOS>ATOM
      1 CAV       -40.7150    5.8018  -14.6587 C.3         1 SY9      -0.0392
      2 CAU       -39.6581    6.8955  -14.3421 C.3         1 SY9      -0.0074
      3 CAT       -39.3087    7.5884  -15.6991 C.3         1 SY9      -0.0009
      4 CAN       -40.5779    8.4187  -16.0796 C.3         1 SY9       0.0127
      5 CAK       -41.7825    7.4702  -16.3881 C.3         1 SY9       0.0377
      6 NAH       -42.9412    8.3031  -16.3547 N.pl3       1 SY9      -0.2664
      7 CAA       -43.6212    8.0919  -15.2066 C.ar        1 SY9       0.0752
      8 CAF       -44.6914    8.8125  -14.6382 C.ar        1 SY9      -0.0107
      9 CAE       -45.1614    8.4572  -13.3604 C.ar        1 SY9      -0.0448
     10 CAD       -44.6081    7.3489  -12.6857 C.ar        1 SY9      -0.0454
     11 CAC       -43.5714    6.6017  -13.2698 C.ar        1 SY9      -0.0502
     12 CAB       -43.0637    7.0013  -14.5198 C.ar        1 SY9      -0.0229
     13 CAG       -42.0244    6.3390  -15.3267 C.3         1 SY9       0.0241
     14 CAW       -42.5720    5.0315  -15.9528 C.3         1 SY9      -0.0311
     15 CAX       -41.3118    4.3182  -16.4699 C.3         1 SY9      -0.0400
     16 NAY       -40.1766    4.7773  -15.6196 N.4         1 SY9       0.2407
     17 CAS       -38.9383    5.1762  -16.3795 C.3         1 SY9      -0.0074
     18 CAR       -38.9217    6.6077  -16.7372 C.2         1 SY9      -0.0310
     19 CAQ       -38.6538    6.9791  -18.0048 C.2         1 SY9      -0.0782
     20 CAP       -38.6994    8.3333  -18.5250 C.3         1 SY9       0.0552
     21 OAO       -40.0329    8.8782  -18.4765 O.3         1 SY9      -0.3712
     22 CAM       -40.4312    9.4650  -17.2245 C.3         1 SY9       0.0708
     23 CAL       -41.7786   10.2379  -17.4080 C.3         1 SY9       0.0233
     24 CAI       -43.0741    9.3652  -17.3236 C.3         1 SY9       0.1466
     25 OAJ       -43.3825    8.7951  -18.5949 O.3         1 SY9      -0.3686
     26 H1        -40.9640    5.2941  -13.7230 H           1 SY9       0.0728
     27 H2        -38.7636    6.4460  -13.8986 H           1 SY9       0.0333
     28 H3        -40.0510    7.6021  -13.6081 H           1 SY9       0.0333
     29 H4        -38.4718    8.2671  -15.5198 H           1 SY9       0.0453
     30 H5        -40.8236    9.0267  -15.1977 H           1 SY9       0.0364
     31 H6        -41.6603    7.0262  -17.3807 H           1 SY9       0.0464
     32 H7        -45.1124    9.6073  -15.1238 H           1 SY9       0.0603
     33 H8        -45.9109    8.9983  -12.9251 H           1 SY9       0.0812
     34 H9        -44.9537    7.0878  -11.7643 H           1 SY9       0.0608
     35 H10       -43.1895    5.7913  -12.7821 H           1 SY9       0.0786
     36 H11       -43.2918    5.2121  -16.7576 H           1 SY9       0.0203
     37 H12       -43.0526    4.4062  -15.1924 H           1 SY9       0.0203
     38 H13       -41.1696    4.5645  -17.5251 H           1 SY9       0.0805
     39 H14       -41.4217    3.2351  -16.3885 H           1 SY9       0.0805
     40 H15       -39.9028    3.9705  -15.0528 H           1 SY9       0.2039
     41 H16       -38.0830    4.9969  -15.7256 H           1 SY9       0.0964
     42 H17       -38.7934    4.5111  -17.2367 H           1 SY9       0.0964
     43 H18       -38.4386    6.2690  -18.6608 H           1 SY9       0.0266
     44 H19       -38.4117    8.3182  -19.5782 H           1 SY9       0.0635
     45 H20       -37.9681    8.9641  -18.0113 H           1 SY9       0.0635
     46 H21       -39.6805   10.2080  -16.9363 H           1 SY9       0.0604
     47 H22       -41.7618   10.7867  -18.3540 H           1 SY9       0.0338
     48 H23       -41.8389   10.9892  -16.6170 H           1 SY9       0.0338
     49 H24       -43.9144   10.0186  -17.0902 H           1 SY9       0.0886
     50 H25       -42.7178    8.0788  -18.7393 H           1 SY9       0.2123
@<TRIPOS>BOND
     1     1     2   1
     2     1    13   1
     3     1    16   1
     4     2     3   1
     5     3     4   1
     6     3    18   1
     7     4     5   1
     8     4    22   1
     9     5     6   1
    10     5    13   1
    11     6     7   1
    12     6    24   1
    13     7     8  ar
    14     7    12  ar
    15     8     9  ar
    16     9    10  ar
    17    10    11  ar
    18    11    12  ar
    19    12    13   1
    20    13    14   1
    21    14    15   1
    22    15    16   1
    23    16    17   1
    24    17    18   1
    25    18    19   2
    26    19    20   1
    27    20    21   1
    28    21    22   1
    29    22    23   1
    30    23    24   1
    31    24    25   1
    32     1    26   1
    33     2    27   1
    34     2    28   1
    35     3    29   1
    36     4    30   1
    37     5    31   1
    38     8    32   1
    39     9    33   1
    40    10    34   1
    41    11    35   1
    42    14    36   1
    43    14    37   1
    44    15    38   1
    45    15    39   1
    46    16    40   1
    47    17    41   1
    48    17    42   1
    49    19    43   1
    50    20    44   1
    51    20    45   1
    52    22    46   1
    53    23    47   1
    54    23    48   1
    55    24    49   1
    56    25    50   1
@<TRIPOS>SUBSTRUCTURE
     1  SY9      1

