@<TRIPOS>MOLECULE
2xys_ligand_072
    50    56
SMALL
GAST_HUCK
****
This file was generated by PARSER (from files_GN.cpp)

@<TRIPOS>ATOM
      1 CAV       -45.2858    5.8673  -15.1518 C.3         1 SY9      -0.0392
      2 CAU       -44.1440    6.4365  -14.2616 C.3         1 SY9      -0.0074
      3 CAT       -42.9992    6.8755  -15.2297 C.3         1 SY9      -0.0009
      4 CAN       -43.5286    8.1418  -15.9788 C.3         1 SY9       0.0127
      5 CAK       -44.8375    7.8657  -16.7956 C.3         1 SY9       0.0377
      6 NAH       -45.4810    9.1457  -16.8952 N.pl3       1 SY9      -0.2664
      7 CAA       -46.6279    9.1535  -16.1780 C.ar        1 SY9       0.0752
      8 CAF       -47.4862   10.2306  -15.8615 C.ar        1 SY9      -0.0107
      9 CAE       -48.6158   10.0052  -15.0530 C.ar        1 SY9      -0.0448
     10 CAD       -48.8992    8.7064  -14.5751 C.ar        1 SY9      -0.0454
     11 CAC       -48.0573    7.6323  -14.9099 C.ar        1 SY9      -0.0502
     12 CAB       -46.9003    7.8716  -15.6813 C.ar        1 SY9      -0.0229
     13 CAG       -45.8980    6.8969  -16.1559 C.3         1 SY9       0.0241
     14 CAW       -46.5386    5.9353  -17.1888 C.3         1 SY9      -0.0311
     15 CAX       -45.4931    4.8174  -17.3112 C.3         1 SY9      -0.0400
     16 NAY       -44.8145    4.7132  -15.9912 N.4         1 SY9       0.2407
     17 CAS       -43.3236    4.5144  -16.0709 C.3         1 SY9      -0.0074
     18 CAR       -42.5832    5.7866  -16.1388 C.2         1 SY9      -0.0310
     19 CAQ       -41.5657    5.9375  -17.0125 C.2         1 SY9      -0.0782
     20 CAP       -40.8426    7.1757  -17.2229 C.3         1 SY9       0.0552
     21 OAO       -41.7213    8.1723  -17.7677 O.3         1 SY9      -0.3712
     22 CAM       -42.5329    8.9664  -16.8698 C.3         1 SY9       0.0708
     23 CAL       -43.2835   10.0117  -17.7727 C.3         1 SY9       0.0233
     24 CAI       -44.7715   10.3058  -17.3882 C.3         1 SY9       0.1466
     25 OAJ       -45.4594   10.8492  -18.5168 O.3         1 SY9      -0.3686
     26 H1        -46.0755    5.4930  -14.4953 H           1 SY9       0.0728
     27 H2        -43.7877    5.6621  -13.5746 H           1 SY9       0.0333
     28 H3        -44.5073    7.2643  -13.6447 H           1 SY9       0.0333
     29 H4        -42.1457    7.1601  -14.6076 H           1 SY9       0.0453
     30 H5        -43.7845    8.8379  -15.1686 H           1 SY9       0.0364
     31 H6        -44.5692    7.5172  -17.7964 H           1 SY9       0.0464
     32 H7        -47.2858   11.1722  -16.2052 H           1 SY9       0.0603
     33 H8        -49.2380   10.7786  -14.8107 H           1 SY9       0.0812
     34 H9        -49.7208    8.5460  -13.9896 H           1 SY9       0.0608
     35 H10       -48.2879    6.6864  -14.5963 H           1 SY9       0.0786
     36 H11       -46.7423    6.4167  -18.1508 H           1 SY9       0.0203
     37 H12       -47.4716    5.5081  -16.8065 H           1 SY9       0.0203
     38 H13       -44.7943    5.0885  -18.1053 H           1 SY9       0.0805
     39 H14       -45.9664    3.8664  -17.5695 H           1 SY9       0.0805
     40 H15       -45.1826    3.8690  -15.5489 H           1 SY9       0.2039
     41 H16       -43.0785    3.8322  -16.8892 H           1 SY9       0.0964
     42 H17       -43.0096    4.0022  -15.1566 H           1 SY9       0.0964
     43 H18       -41.3036    5.1647  -17.5827 H           1 SY9       0.0266
     44 H19       -40.0593    7.0118  -17.9675 H           1 SY9       0.0635
     45 H20       -40.3504    7.5116  -16.3051 H           1 SY9       0.0635
     46 H21       -41.8514    9.5120  -16.2038 H           1 SY9       0.0604
     47 H22       -43.3043    9.6340  -18.7956 H           1 SY9       0.0338
     48 H23       -42.7250   10.9504  -17.7904 H           1 SY9       0.0338
     49 H24       -44.7660   11.0632  -16.6033 H           1 SY9       0.0886
     50 H25       -44.7937   11.4184  -18.9607 H           1 SY9       0.2123
@<TRIPOS>BOND
     1     1     2   1
     2     1    13   1
     3     1    16   1
     4     2     3   1
     5     3     4   1
     6     3    18   1
     7     4     5   1
     8     4    22   1
     9     5     6   1
    10     5    13   1
    11     6     7   1
    12     6    24   1
    13     7     8  ar
    14     7    12  ar
    15     8     9  ar
    16     9    10  ar
    17    10    11  ar
    18    11    12  ar
    19    12    13   1
    20    13    14   1
    21    14    15   1
    22    15    16   1
    23    16    17   1
    24    17    18   1
    25    18    19   2
    26    19    20   1
    27    20    21   1
    28    21    22   1
    29    22    23   1
    30    23    24   1
    31    24    25   1
    32     1    26   1
    33     2    27   1
    34     2    28   1
    35     3    29   1
    36     4    30   1
    37     5    31   1
    38     8    32   1
    39     9    33   1
    40    10    34   1
    41    11    35   1
    42    14    36   1
    43    14    37   1
    44    15    38   1
    45    15    39   1
    46    16    40   1
    47    17    41   1
    48    17    42   1
    49    19    43   1
    50    20    44   1
    51    20    45   1
    52    22    46   1
    53    23    47   1
    54    23    48   1
    55    24    49   1
    56    25    50   1
@<TRIPOS>SUBSTRUCTURE
     1  SY9      1

