@<TRIPOS>MOLECULE
2xys_ligand_007
    50    56
SMALL
GAST_HUCK
****
This file was generated by PARSER (from files_GN.cpp)

@<TRIPOS>ATOM
      1 CAV       -43.7916    5.8756  -15.7381 C.3         1 SY9      -0.0392
      2 CAU       -43.5971    6.1007  -17.2640 C.3         1 SY9      -0.0074
      3 CAT       -42.3553    7.0408  -17.4289 C.3         1 SY9      -0.0009
      4 CAN       -41.1247    6.1647  -17.0326 C.3         1 SY9       0.0127
      5 CAK       -41.1719    5.7978  -15.5107 C.3         1 SY9       0.0377
      6 NAH       -40.2356    4.7325  -15.3477 N.pl3       1 SY9      -0.2664
      7 CAA       -40.8982    3.5616  -15.2072 C.ar        1 SY9       0.0752
      8 CAF       -40.4051    2.2406  -15.1922 C.ar        1 SY9      -0.0107
      9 CAE       -41.3090    1.1673  -15.0629 C.ar        1 SY9      -0.0448
     10 CAD       -42.6913    1.4106  -14.9441 C.ar        1 SY9      -0.0454
     11 CAC       -43.1822    2.7300  -14.9469 C.ar        1 SY9      -0.0502
     12 CAB       -42.2765    3.8003  -15.0902 C.ar        1 SY9      -0.0229
     13 CAG       -42.5548    5.2483  -15.0092 C.3         1 SY9       0.0241
     14 CAW       -42.8571    5.6565  -13.5454 C.3         1 SY9      -0.0311
     15 CAX       -43.4323    7.0759  -13.6731 C.3         1 SY9      -0.0400
     16 NAY       -44.0469    7.1750  -15.0280 N.4         1 SY9       0.2407
     17 CAS       -43.6877    8.4263  -15.7861 C.3         1 SY9      -0.0074
     18 CAR       -42.4739    8.2726  -16.6108 C.2         1 SY9      -0.0310
     19 CAQ       -41.4817    9.1863  -16.5318 C.2         1 SY9      -0.0782
     20 CAP       -40.1964    9.1005  -17.2024 C.3         1 SY9       0.0552
     21 OAO       -39.4135    7.9698  -16.7651 O.3         1 SY9      -0.3712
     22 CAM       -39.7116    6.7082  -17.3977 C.3         1 SY9       0.0708
     23 CAL       -38.6387    5.6354  -17.0103 C.3         1 SY9       0.0233
     24 CAI       -38.8350    4.9845  -15.6039 C.3         1 SY9       0.1466
     25 OAJ       -38.3154    5.8516  -14.5961 O.3         1 SY9      -0.3686
     26 H1        -44.6687    5.2370  -15.5947 H           1 SY9       0.0728
     27 H2        -44.4887    6.5652  -17.6942 H           1 SY9       0.0333
     28 H3        -43.4672    5.1429  -17.7706 H           1 SY9       0.0333
     29 H4        -42.2786    7.3178  -18.4854 H           1 SY9       0.0453
     30 H5        -41.2093    5.2360  -17.6149 H           1 SY9       0.0364
     31 H6        -40.8655    6.6608  -14.9099 H           1 SY9       0.0464
     32 H7        -39.4065    2.0530  -15.2795 H           1 SY9       0.0603
     33 H8        -40.9617    0.2061  -15.0539 H           1 SY9       0.0812
     34 H9        -43.3394    0.6268  -14.8457 H           1 SY9       0.0608
     35 H10       -44.1814    2.9044  -14.8333 H           1 SY9       0.0786
     36 H11       -41.9690    5.6404  -12.9093 H           1 SY9       0.0203
     37 H12       -43.6111    4.9980  -13.1025 H           1 SY9       0.0203
     38 H13       -42.6227    7.7984  -13.5275 H           1 SY9       0.0805
     39 H14       -44.1884    7.2558  -12.9052 H           1 SY9       0.0805
     40 H15       -45.0575    7.2251  -14.8801 H           1 SY9       0.2039
     41 H16       -44.5152    8.6532  -16.4623 H           1 SY9       0.0964
     42 H17       -43.6378    9.2712  -15.0957 H           1 SY9       0.0964
     43 H18       -41.6152    9.9837  -15.9519 H           1 SY9       0.0266
     44 H19       -39.6140    9.9911  -16.9560 H           1 SY9       0.0635
     45 H20       -40.3370    9.1102  -18.2857 H           1 SY9       0.0635
     46 H21       -39.6499    6.8395  -18.4840 H           1 SY9       0.0604
     47 H22       -37.6391    6.0736  -17.0803 H           1 SY9       0.0338
     48 H23       -38.6890    4.8307  -17.7510 H           1 SY9       0.0338
     49 H24       -38.2479    4.0656  -15.5619 H           1 SY9       0.0886
     50 H25       -38.3336    5.3283  -13.7660 H           1 SY9       0.2123
@<TRIPOS>BOND
     1     1     2   1
     2     1    13   1
     3     1    16   1
     4     2     3   1
     5     3     4   1
     6     3    18   1
     7     4     5   1
     8     4    22   1
     9     5     6   1
    10     5    13   1
    11     6     7   1
    12     6    24   1
    13     7     8  ar
    14     7    12  ar
    15     8     9  ar
    16     9    10  ar
    17    10    11  ar
    18    11    12  ar
    19    12    13   1
    20    13    14   1
    21    14    15   1
    22    15    16   1
    23    16    17   1
    24    17    18   1
    25    18    19   2
    26    19    20   1
    27    20    21   1
    28    21    22   1
    29    22    23   1
    30    23    24   1
    31    24    25   1
    32     1    26   1
    33     2    27   1
    34     2    28   1
    35     3    29   1
    36     4    30   1
    37     5    31   1
    38     8    32   1
    39     9    33   1
    40    10    34   1
    41    11    35   1
    42    14    36   1
    43    14    37   1
    44    15    38   1
    45    15    39   1
    46    16    40   1
    47    17    41   1
    48    17    42   1
    49    19    43   1
    50    20    44   1
    51    20    45   1
    52    22    46   1
    53    23    47   1
    54    23    48   1
    55    24    49   1
    56    25    50   1
@<TRIPOS>SUBSTRUCTURE
     1  SY9      1

