@<TRIPOS>MOLECULE
2xys_ligand_080
    50    56
SMALL
GAST_HUCK
****
This file was generated by PARSER (from files_GN.cpp)

@<TRIPOS>ATOM
      1 CAV       -32.6341    4.3351  -13.8594 C.3         1 SY9      -0.0392
      2 CAU       -33.2617    4.3957  -12.4467 C.3         1 SY9      -0.0074
      3 CAT       -34.4048    3.3287  -12.4144 C.3         1 SY9      -0.0009
      4 CAN       -33.6839    1.9399  -12.3804 C.3         1 SY9       0.0127
      5 CAK       -32.7534    1.7108  -13.6205 C.3         1 SY9       0.0377
      6 NAH       -31.7564    0.7881  -13.1643 N.pl3       1 SY9      -0.2664
      7 CAA       -30.5366    1.3713  -13.1655 C.ar        1 SY9       0.0752
      8 CAF       -29.3138    0.8657  -12.6866 C.ar        1 SY9      -0.0107
      9 CAE       -28.1572    1.6730  -12.7510 C.ar        1 SY9      -0.0448
     10 CAD       -28.2376    2.9754  -13.2899 C.ar        1 SY9      -0.0454
     11 CAC       -29.4604    3.4733  -13.7666 C.ar        1 SY9      -0.0502
     12 CAB       -30.6130    2.6680  -13.6920 C.ar        1 SY9      -0.0229
     13 CAG       -31.9763    2.9553  -14.1858 C.3         1 SY9       0.0241
     14 CAW       -31.9983    2.9994  -15.7317 C.3         1 SY9      -0.0311
     15 CAX       -33.3772    3.6080  -16.0375 C.3         1 SY9      -0.0400
     16 NAY       -33.6585    4.5612  -14.9348 N.4         1 SY9       0.2407
     17 CAS       -35.0946    4.5647  -14.5041 C.3         1 SY9      -0.0074
     18 CAR       -35.3669    3.5006  -13.5272 C.2         1 SY9      -0.0310
     19 CAQ       -36.4414    2.7068  -13.6943 C.2         1 SY9      -0.0782
     20 CAP       -36.7187    1.5286  -12.9010 C.3         1 SY9       0.0552
     21 OAO       -35.6685    0.5578  -13.0510 O.3         1 SY9      -0.3712
     22 CAM       -34.5241    0.6372  -12.1652 C.3         1 SY9       0.0708
     23 CAL       -33.6526   -0.6606  -12.3832 C.3         1 SY9       0.0233
     24 CAI       -32.1082   -0.4351  -12.4854 C.3         1 SY9       0.1466
     25 OAJ       -31.4832   -1.5467  -13.1236 O.3         1 SY9      -0.3686
     26 H1        -31.8900    5.1309  -13.9412 H           1 SY9       0.0728
     27 H2        -33.6610    5.3928  -12.2550 H           1 SY9       0.0333
     28 H3        -32.4929    4.2158  -11.6950 H           1 SY9       0.0333
     29 H4        -34.9437    3.4657  -11.4729 H           1 SY9       0.0453
     30 H5        -33.0475    1.9913  -11.4837 H           1 SY9       0.0364
     31 H6        -33.3347    1.2348  -14.4199 H           1 SY9       0.0464
     32 H7        -29.2516   -0.0739  -12.2918 H           1 SY9       0.0603
     33 H8        -27.2687    1.3146  -12.4062 H           1 SY9       0.0812
     34 H9        -27.3959    3.5529  -13.3341 H           1 SY9       0.0608
     35 H10       -29.5064    4.4127  -14.1697 H           1 SY9       0.0786
     36 H11       -31.8759    2.0113  -16.1855 H           1 SY9       0.0203
     37 H12       -31.2106    3.6560  -16.1059 H           1 SY9       0.0203
     38 H13       -34.1180    2.8026  -16.0980 H           1 SY9       0.0805
     39 H14       -33.3950    4.1430  -16.9842 H           1 SY9       0.0805
     40 H15       -33.4798    5.4964  -15.3071 H           1 SY9       0.2039
     41 H16       -35.7498    4.5377  -15.3807 H           1 SY9       0.0964
     42 H17       -35.2947    5.5237  -14.0244 H           1 SY9       0.0964
     43 H18       -37.0745    2.9008  -14.4405 H           1 SY9       0.0266
     44 H19       -37.6334    1.0686  -13.2731 H           1 SY9       0.0635
     45 H20       -36.9108    1.7969  -11.8635 H           1 SY9       0.0635
     46 H21       -34.8812    0.6244  -11.1302 H           1 SY9       0.0604
     47 H22       -33.9710   -1.1460  -13.3069 H           1 SY9       0.0338
     48 H23       -33.8509   -1.3672  -11.5750 H           1 SY9       0.0338
     49 H24       -31.7210   -0.3795  -11.4620 H           1 SY9       0.0886
     50 H25       -31.8304   -1.5416  -14.0417 H           1 SY9       0.2123
@<TRIPOS>BOND
     1     1     2   1
     2     1    13   1
     3     1    16   1
     4     2     3   1
     5     3     4   1
     6     3    18   1
     7     4     5   1
     8     4    22   1
     9     5     6   1
    10     5    13   1
    11     6     7   1
    12     6    24   1
    13     7     8  ar
    14     7    12  ar
    15     8     9  ar
    16     9    10  ar
    17    10    11  ar
    18    11    12  ar
    19    12    13   1
    20    13    14   1
    21    14    15   1
    22    15    16   1
    23    16    17   1
    24    17    18   1
    25    18    19   2
    26    19    20   1
    27    20    21   1
    28    21    22   1
    29    22    23   1
    30    23    24   1
    31    24    25   1
    32     1    26   1
    33     2    27   1
    34     2    28   1
    35     3    29   1
    36     4    30   1
    37     5    31   1
    38     8    32   1
    39     9    33   1
    40    10    34   1
    41    11    35   1
    42    14    36   1
    43    14    37   1
    44    15    38   1
    45    15    39   1
    46    16    40   1
    47    17    41   1
    48    17    42   1
    49    19    43   1
    50    20    44   1
    51    20    45   1
    52    22    46   1
    53    23    47   1
    54    23    48   1
    55    24    49   1
    56    25    50   1
@<TRIPOS>SUBSTRUCTURE
     1  SY9      1

