@<TRIPOS>MOLECULE
2xys_ligand_006
    50    56
SMALL
GAST_HUCK
****
This file was generated by PARSER (from files_GN.cpp)

@<TRIPOS>ATOM
      1 CAV       -33.3617    0.1269  -12.8980 C.3         1 SY9      -0.0392
      2 CAU       -32.7881   -1.0158  -13.7824 C.3         1 SY9      -0.0074
      3 CAT       -32.6197   -0.4255  -15.2242 C.3         1 SY9      -0.0009
      4 CAN       -31.4326    0.5825  -15.1142 C.3         1 SY9       0.0127
      5 CAK       -31.8226    1.8029  -14.2115 C.3         1 SY9       0.0377
      6 NAH       -30.5935    2.4592  -13.9026 N.pl3       1 SY9      -0.2664
      7 CAA       -30.2430    2.1872  -12.6262 C.ar        1 SY9       0.0752
      8 CAF       -29.0401    2.4624  -11.9445 C.ar        1 SY9      -0.0107
      9 CAE       -28.8909    2.0440  -10.6084 C.ar        1 SY9      -0.0448
     10 CAD       -29.9368    1.3599   -9.9589 C.ar        1 SY9      -0.0454
     11 CAC       -31.1420    1.0897  -10.6362 C.ar        1 SY9      -0.0502
     12 CAB       -31.2807    1.4966  -11.9776 C.ar        1 SY9      -0.0229
     13 CAG       -32.4781    1.4197  -12.8371 C.3         1 SY9       0.0241
     14 CAW       -33.5326    2.4565  -12.3694 C.3         1 SY9      -0.0311
     15 CAX       -34.8056    2.0541  -13.1360 C.3         1 SY9      -0.0400
     16 NAY       -34.6937    0.5930  -13.4185 N.4         1 SY9       0.2407
     17 CAS       -35.0339    0.2053  -14.8321 C.3         1 SY9      -0.0074
     18 CAR       -33.8658    0.2077  -15.7253 C.2         1 SY9      -0.0310
     19 CAQ       -33.9396    0.8386  -16.9166 C.2         1 SY9      -0.0782
     20 CAP       -32.8339    1.0144  -17.8369 C.3         1 SY9       0.0552
     21 OAO       -31.7775    1.8018  -17.2524 O.3         1 SY9      -0.3712
     22 CAM       -30.8118    1.0962  -16.4456 C.3         1 SY9       0.0708
     23 CAL       -29.5884    2.0184  -16.1216 C.3         1 SY9       0.0233
     24 CAI       -29.8221    3.0507  -14.9740 C.3         1 SY9       0.1466
     25 OAJ       -30.5095    4.1889  -15.4920 O.3         1 SY9      -0.3686
     26 H1        -33.5140   -0.2688  -11.8883 H           1 SY9       0.0728
     27 H2        -33.4785   -1.8642  -13.7930 H           1 SY9       0.0333
     28 H3        -31.8473   -1.3838  -13.3650 H           1 SY9       0.0333
     29 H4        -32.3394   -1.2434  -15.8948 H           1 SY9       0.0453
     30 H5        -30.6085    0.0407  -14.6317 H           1 SY9       0.0364
     31 H6        -32.4777    2.4822  -14.7670 H           1 SY9       0.0464
     32 H7        -28.2718    2.9481  -12.4068 H           1 SY9       0.0603
     33 H8        -28.0161    2.2297  -10.1127 H           1 SY9       0.0812
     34 H9        -29.8119    1.0400   -8.9978 H           1 SY9       0.0608
     35 H10       -31.9008    0.6010  -10.1566 H           1 SY9       0.0786
     36 H11       -33.2365    3.4880  -12.5868 H           1 SY9       0.0203
     37 H12       -33.7152    2.3693  -11.2923 H           1 SY9       0.0203
     38 H13       -34.8710    2.6530  -14.0511 H           1 SY9       0.0805
     39 H14       -35.7007    2.2563  -12.5435 H           1 SY9       0.0805
     40 H15       -35.3930    0.1169  -12.8471 H           1 SY9       0.2039
     41 H16       -35.3976   -0.8198  -14.8063 H           1 SY9       0.0964
     42 H17       -35.8759    0.8038  -15.1981 H           1 SY9       0.0964
     43 H18       -34.8043    1.2529  -17.1838 H           1 SY9       0.0266
     44 H19       -33.1853    1.5739  -18.7073 H           1 SY9       0.0635
     45 H20       -32.4829    0.0452  -18.2049 H           1 SY9       0.0635
     46 H21       -30.4227    0.2454  -17.0179 H           1 SY9       0.0604
     47 H22       -29.2712    2.5416  -17.0281 H           1 SY9       0.0338
     48 H23       -28.7569    1.3763  -15.8146 H           1 SY9       0.0338
     49 H24       -28.8487    3.4035  -14.6255 H           1 SY9       0.0886
     50 H25       -30.4881    4.8618  -14.7783 H           1 SY9       0.2123
@<TRIPOS>BOND
     1     1     2   1
     2     1    13   1
     3     1    16   1
     4     2     3   1
     5     3     4   1
     6     3    18   1
     7     4     5   1
     8     4    22   1
     9     5     6   1
    10     5    13   1
    11     6     7   1
    12     6    24   1
    13     7     8  ar
    14     7    12  ar
    15     8     9  ar
    16     9    10  ar
    17    10    11  ar
    18    11    12  ar
    19    12    13   1
    20    13    14   1
    21    14    15   1
    22    15    16   1
    23    16    17   1
    24    17    18   1
    25    18    19   2
    26    19    20   1
    27    20    21   1
    28    21    22   1
    29    22    23   1
    30    23    24   1
    31    24    25   1
    32     1    26   1
    33     2    27   1
    34     2    28   1
    35     3    29   1
    36     4    30   1
    37     5    31   1
    38     8    32   1
    39     9    33   1
    40    10    34   1
    41    11    35   1
    42    14    36   1
    43    14    37   1
    44    15    38   1
    45    15    39   1
    46    16    40   1
    47    17    41   1
    48    17    42   1
    49    19    43   1
    50    20    44   1
    51    20    45   1
    52    22    46   1
    53    23    47   1
    54    23    48   1
    55    24    49   1
    56    25    50   1
@<TRIPOS>SUBSTRUCTURE
     1  SY9      1

