@<TRIPOS>MOLECULE
2xys_ligand_056
    50    56
SMALL
GAST_HUCK
****
This file was generated by PARSER (from files_GN.cpp)

@<TRIPOS>ATOM
      1 CAV       -50.1398   -4.2079  -19.6082 C.3         1 SY9      -0.0392
      2 CAU       -50.2111   -5.7553  -19.4992 C.3         1 SY9      -0.0074
      3 CAT       -48.7366   -6.2779  -19.4874 C.3         1 SY9      -0.0009
      4 CAN       -48.1383   -5.8681  -18.1037 C.3         1 SY9       0.0127
      5 CAK       -48.1663   -4.3186  -17.8678 C.3         1 SY9       0.0377
      6 NAH       -48.1895   -4.1744  -16.4416 N.pl3       1 SY9      -0.2664
      7 CAA       -49.3598   -3.6396  -16.0358 C.ar        1 SY9       0.0752
      8 CAF       -49.8432   -3.4443  -14.7257 C.ar        1 SY9      -0.0107
      9 CAE       -51.1367   -2.9208  -14.5383 C.ar        1 SY9      -0.0448
     10 CAD       -51.9287   -2.5755  -15.6504 C.ar        1 SY9      -0.0454
     11 CAC       -51.4347   -2.7553  -16.9574 C.ar        1 SY9      -0.0502
     12 CAB       -50.1503   -3.3063  -17.1417 C.ar        1 SY9      -0.0229
     13 CAG       -49.4146   -3.5233  -18.4037 C.3         1 SY9       0.0241
     14 CAW       -49.0293   -2.1644  -19.0425 C.3         1 SY9      -0.0311
     15 CAX       -48.6050   -2.5495  -20.4688 C.3         1 SY9      -0.0400
     16 NAY       -49.3916   -3.7613  -20.8345 N.4         1 SY9       0.2407
     17 CAS       -48.6030   -4.8221  -21.5542 C.3         1 SY9      -0.0074
     18 CAR       -47.9522   -5.7726  -20.6352 C.2         1 SY9      -0.0310
     19 CAQ       -46.6756   -6.1566  -20.8443 C.2         1 SY9      -0.0782
     20 CAP       -45.9135   -6.9999  -19.9429 C.3         1 SY9       0.0552
     21 OAO       -45.7113   -6.3357  -18.6840 O.3         1 SY9      -0.3712
     22 CAM       -46.7370   -6.4285  -17.6700 C.3         1 SY9       0.0708
     23 CAL       -46.1823   -5.6827  -16.3968 C.3         1 SY9       0.0233
     24 CAI       -47.2421   -4.8598  -15.5907 C.3         1 SY9       0.1466
     25 OAJ       -46.6049   -3.8858  -14.7647 O.3         1 SY9      -0.3686
     26 H1        -51.1630   -3.8267  -19.6886 H           1 SY9       0.0728
     27 H2        -50.7535   -6.1661  -20.3553 H           1 SY9       0.0333
     28 H3        -50.7627   -6.0493  -18.6009 H           1 SY9       0.0333
     29 H4        -48.7823   -7.3712  -19.5455 H           1 SY9       0.0453
     30 H5        -48.8255   -6.3268  -17.3815 H           1 SY9       0.0364
     31 H6        -47.2439   -3.8814  -18.2644 H           1 SY9       0.0464
     32 H7        -49.2685   -3.6774  -13.9156 H           1 SY9       0.0603
     33 H8        -51.5003   -2.7901  -13.5921 H           1 SY9       0.0812
     34 H9        -52.8630   -2.1873  -15.5078 H           1 SY9       0.0608
     35 H10       -52.0036   -2.4813  -17.7597 H           1 SY9       0.0786
     36 H11       -48.2264   -1.6521  -18.5037 H           1 SY9       0.0203
     37 H12       -49.8937   -1.4930  -19.0941 H           1 SY9       0.0203
     38 H13       -47.5259   -2.7349  -20.4797 H           1 SY9       0.0805
     39 H14       -48.8198   -1.7381  -21.1688 H           1 SY9       0.0805
     40 H15       -50.1018   -3.4458  -21.5002 H           1 SY9       0.2039
     41 H16       -47.9028   -4.3562  -22.2548 H           1 SY9       0.0964
     42 H17       -49.3050   -5.3893  -22.1703 H           1 SY9       0.0964
     43 H18       -46.2010   -5.8211  -21.6523 H           1 SY9       0.0266
     44 H19       -44.9234   -7.1731  -20.3722 H           1 SY9       0.0635
     45 H20       -46.3855   -7.9786  -19.8230 H           1 SY9       0.0635
     46 H21       -46.8578   -7.4874  -17.4170 H           1 SY9       0.0604
     47 H22       -45.4131   -4.9720  -16.7140 H           1 SY9       0.0338
     48 H23       -45.6960   -6.4016  -15.7314 H           1 SY9       0.0338
     49 H24       -47.7894   -5.5615  -14.9511 H           1 SY9       0.0886
     50 H25       -46.7769   -4.1610  -13.8381 H           1 SY9       0.2123
@<TRIPOS>BOND
     1     1     2   1
     2     1    13   1
     3     1    16   1
     4     2     3   1
     5     3     4   1
     6     3    18   1
     7     4     5   1
     8     4    22   1
     9     5     6   1
    10     5    13   1
    11     6     7   1
    12     6    24   1
    13     7     8  ar
    14     7    12  ar
    15     8     9  ar
    16     9    10  ar
    17    10    11  ar
    18    11    12  ar
    19    12    13   1
    20    13    14   1
    21    14    15   1
    22    15    16   1
    23    16    17   1
    24    17    18   1
    25    18    19   2
    26    19    20   1
    27    20    21   1
    28    21    22   1
    29    22    23   1
    30    23    24   1
    31    24    25   1
    32     1    26   1
    33     2    27   1
    34     2    28   1
    35     3    29   1
    36     4    30   1
    37     5    31   1
    38     8    32   1
    39     9    33   1
    40    10    34   1
    41    11    35   1
    42    14    36   1
    43    14    37   1
    44    15    38   1
    45    15    39   1
    46    16    40   1
    47    17    41   1
    48    17    42   1
    49    19    43   1
    50    20    44   1
    51    20    45   1
    52    22    46   1
    53    23    47   1
    54    23    48   1
    55    24    49   1
    56    25    50   1
@<TRIPOS>SUBSTRUCTURE
     1  SY9      1

