@<TRIPOS>MOLECULE
2xys_ligand_044
    50    56
SMALL
GAST_HUCK
****
This file was generated by PARSER (from files_GN.cpp)

@<TRIPOS>ATOM
      1 CAV       -33.7201   -0.3768  -14.4181 C.3         1 SY9      -0.0392
      2 CAU       -33.5588   -0.4437  -12.8753 C.3         1 SY9      -0.0074
      3 CAT       -32.1625    0.1686  -12.5334 C.3         1 SY9      -0.0009
      4 CAN       -32.2857    1.7044  -12.7929 C.3         1 SY9       0.0127
      5 CAK       -32.6724    2.0368  -14.2758 C.3         1 SY9       0.0377
      6 NAH       -33.3113    3.3202  -14.2015 N.pl3       1 SY9      -0.2664
      7 CAA       -34.6196    3.2126  -14.5189 C.ar        1 SY9       0.0752
      8 CAF       -35.6402    4.1822  -14.4422 C.ar        1 SY9      -0.0107
      9 CAE       -36.9603    3.8328  -14.7862 C.ar        1 SY9      -0.0448
     10 CAD       -37.2568    2.5210  -15.2054 C.ar        1 SY9      -0.0454
     11 CAC       -36.2352    1.5545  -15.2827 C.ar        1 SY9      -0.0502
     12 CAB       -34.9179    1.9054  -14.9228 C.ar        1 SY9      -0.0229
     13 CAG       -33.6974    1.0781  -14.9906 C.3         1 SY9       0.0241
     14 CAW       -33.3206    0.7911  -16.4663 C.3         1 SY9      -0.0311
     15 CAX       -32.2771   -0.3310  -16.3576 C.3         1 SY9      -0.0400
     16 NAY       -32.6158   -1.1066  -15.1319 N.4         1 SY9       0.2407
     17 CAS       -31.4282   -1.4961  -14.2949 C.3         1 SY9      -0.0074
     18 CAR       -31.0697   -0.4734  -13.2962 C.2         1 SY9      -0.0310
     19 CAQ       -29.7787   -0.1380  -13.1015 C.2         1 SY9      -0.0782
     20 CAP       -29.3310    0.9290  -12.2279 C.3         1 SY9       0.0552
     21 OAO       -29.7942    2.1985  -12.7168 O.3         1 SY9      -0.3712
     22 CAM       -31.1160    2.6520  -12.3488 C.3         1 SY9       0.0708
     23 CAL       -31.2751    4.0993  -12.9525 C.3         1 SY9       0.0233
     24 CAI       -32.6971    4.4337  -13.5078 C.3         1 SY9       0.1466
     25 OAJ       -32.6114    5.5525  -14.3883 O.3         1 SY9      -0.3686
     26 H1        -34.6639   -0.8649  -14.6828 H           1 SY9       0.0728
     27 H2        -33.6028   -1.4844  -12.5401 H           1 SY9       0.0333
     28 H3        -34.3764    0.0924  -12.3838 H           1 SY9       0.0333
     29 H4        -31.9920   -0.0008  -11.4649 H           1 SY9       0.0453
     30 H5        -33.1244    2.0148  -12.1516 H           1 SY9       0.0364
     31 H6        -31.7579    2.1170  -14.8734 H           1 SY9       0.0464
     32 H7        -35.4328    5.1339  -14.1413 H           1 SY9       0.0603
     33 H8        -37.7031    4.5329  -14.7324 H           1 SY9       0.0812
     34 H9        -38.2154    2.2744  -15.4610 H           1 SY9       0.0608
     35 H10       -36.4451    0.6103  -15.6069 H           1 SY9       0.0786
     36 H11       -32.9205    1.6680  -16.9810 H           1 SY9       0.0203
     37 H12       -34.1843    0.4260  -17.0314 H           1 SY9       0.0203
     38 H13       -31.2786    0.1153  -16.3060 H           1 SY9       0.0805
     39 H14       -32.3159   -0.9812  -17.2346 H           1 SY9       0.0805
     40 H15       -33.0228   -1.9867  -15.4583 H           1 SY9       0.2039
     41 H16       -30.5895   -1.7772  -14.9405 H           1 SY9       0.0964
     42 H17       -31.7006   -2.4027  -13.7506 H           1 SY9       0.0964
     43 H18       -29.0749   -0.6223  -13.6119 H           1 SY9       0.0266
     44 H19       -28.2393    0.9661  -12.2419 H           1 SY9       0.0635
     45 H20       -29.6327    0.7465  -11.1930 H           1 SY9       0.0635
     46 H21       -31.1447    2.7293  -11.2574 H           1 SY9       0.0604
     47 H22       -30.5695    4.2156  -13.7811 H           1 SY9       0.0338
     48 H23       -30.9992    4.8476  -12.2063 H           1 SY9       0.0338
     49 H24       -33.3237    4.7017  -12.6500 H           1 SY9       0.0886
     50 H25       -33.3421    6.1533  -14.1344 H           1 SY9       0.2123
@<TRIPOS>BOND
     1     1     2   1
     2     1    13   1
     3     1    16   1
     4     2     3   1
     5     3     4   1
     6     3    18   1
     7     4     5   1
     8     4    22   1
     9     5     6   1
    10     5    13   1
    11     6     7   1
    12     6    24   1
    13     7     8  ar
    14     7    12  ar
    15     8     9  ar
    16     9    10  ar
    17    10    11  ar
    18    11    12  ar
    19    12    13   1
    20    13    14   1
    21    14    15   1
    22    15    16   1
    23    16    17   1
    24    17    18   1
    25    18    19   2
    26    19    20   1
    27    20    21   1
    28    21    22   1
    29    22    23   1
    30    23    24   1
    31    24    25   1
    32     1    26   1
    33     2    27   1
    34     2    28   1
    35     3    29   1
    36     4    30   1
    37     5    31   1
    38     8    32   1
    39     9    33   1
    40    10    34   1
    41    11    35   1
    42    14    36   1
    43    14    37   1
    44    15    38   1
    45    15    39   1
    46    16    40   1
    47    17    41   1
    48    17    42   1
    49    19    43   1
    50    20    44   1
    51    20    45   1
    52    22    46   1
    53    23    47   1
    54    23    48   1
    55    24    49   1
    56    25    50   1
@<TRIPOS>SUBSTRUCTURE
     1  SY9      1

