@<TRIPOS>MOLECULE
2xys_ligand_037
    50    56
SMALL
GAST_HUCK
****
This file was generated by PARSER (from files_GN.cpp)

@<TRIPOS>ATOM
      1 CAV       -41.6776    6.4585  -16.3063 C.3         1 SY9      -0.0392
      2 CAU       -42.2884    5.7184  -17.5263 C.3         1 SY9      -0.0074
      3 CAT       -43.8433    5.8316  -17.3817 C.3         1 SY9      -0.0009
      4 CAN       -44.1813    7.3215  -17.6802 C.3         1 SY9       0.0127
      5 CAK       -43.5965    8.2347  -16.5521 C.3         1 SY9       0.0377
      6 NAH       -43.6491    9.5561  -17.0801 N.pl3       1 SY9      -0.2664
      7 CAA       -42.4024    9.9547  -17.4356 C.ar        1 SY9       0.0752
      8 CAF       -41.9902   11.1045  -18.1361 C.ar        1 SY9      -0.0107
      9 CAE       -40.6203   11.2789  -18.4270 C.ar        1 SY9      -0.0448
     10 CAD       -39.6771   10.3201  -18.0106 C.ar        1 SY9      -0.0454
     11 CAC       -40.0852    9.1883  -17.2847 C.ar        1 SY9      -0.0502
     12 CAB       -41.4541    9.0055  -17.0087 C.ar        1 SY9      -0.0229
     13 CAG       -42.0922    7.9644  -16.1826 C.3         1 SY9       0.0241
     14 CAW       -41.7905    8.2109  -14.6812 C.3         1 SY9      -0.0311
     15 CAX       -42.2380    6.9065  -14.0016 C.3         1 SY9      -0.0400
     16 NAY       -42.1191    5.8237  -15.0157 N.4         1 SY9       0.2407
     17 CAS       -43.3133    4.9080  -15.0903 C.3         1 SY9      -0.0074
     18 CAR       -44.3218    5.3747  -16.0578 C.2         1 SY9      -0.0310
     19 CAQ       -45.6214    5.4580  -15.6981 C.2         1 SY9      -0.0782
     20 CAP       -46.7038    5.9846  -16.5123 C.3         1 SY9       0.0552
     21 OAO       -46.5325    7.3818  -16.8248 O.3         1 SY9      -0.3712
     22 CAM       -45.6720    7.6861  -17.9413 C.3         1 SY9       0.0708
     23 CAL       -45.7746    9.2021  -18.2971 C.3         1 SY9       0.0233
     24 CAI       -44.9464   10.1320  -17.3636 C.3         1 SY9       0.1466
     25 OAJ       -45.6630   10.3093  -16.1434 O.3         1 SY9      -0.3686
     26 H1        -40.5874    6.3801  -16.3650 H           1 SY9       0.0728
     27 H2        -41.9739    4.6721  -17.5173 H           1 SY9       0.0333
     28 H3        -41.9205    6.1485  -18.4612 H           1 SY9       0.0333
     29 H4        -44.3095    5.2066  -18.1456 H           1 SY9       0.0453
     30 H5        -43.6794    7.5678  -18.6252 H           1 SY9       0.0364
     31 H6        -44.2216    8.1673  -15.6553 H           1 SY9       0.0464
     32 H7        -42.6701   11.8029  -18.4505 H           1 SY9       0.0603
     33 H8        -40.3054   12.0991  -18.9480 H           1 SY9       0.0812
     34 H9        -38.6919   10.4499  -18.2405 H           1 SY9       0.0608
     35 H10       -39.3954    8.5192  -16.9500 H           1 SY9       0.0786
     36 H11       -42.3197    9.0784  -14.2685 H           1 SY9       0.0203
     37 H12       -40.7160    8.3554  -14.5165 H           1 SY9       0.0203
     38 H13       -43.2590    7.0317  -13.6272 H           1 SY9       0.0805
     39 H14       -41.5895    6.6695  -13.1545 H           1 SY9       0.0805
     40 H15       -41.3423    5.2330  -14.7067 H           1 SY9       0.2039
     41 H16       -42.9584    3.9337  -15.4329 H           1 SY9       0.0964
     42 H17       -43.7185    4.7332  -14.0879 H           1 SY9       0.0964
     43 H18       -45.8781    5.1529  -14.7855 H           1 SY9       0.0266
     44 H19       -47.6321    5.9091  -15.9364 H           1 SY9       0.0635
     45 H20       -46.8403    5.3706  -17.4091 H           1 SY9       0.0635
     46 H21       -46.0276    7.1308  -18.8153 H           1 SY9       0.0604
     47 H22       -46.8246    9.5175  -18.2898 H           1 SY9       0.0338
     48 H23       -45.4066    9.3467  -19.3148 H           1 SY9       0.0338
     49 H24       -44.8375   11.1129  -17.8328 H           1 SY9       0.0886
     50 H25       -44.9802   10.5117  -15.4629 H           1 SY9       0.2123
@<TRIPOS>BOND
     1     1     2   1
     2     1    13   1
     3     1    16   1
     4     2     3   1
     5     3     4   1
     6     3    18   1
     7     4     5   1
     8     4    22   1
     9     5     6   1
    10     5    13   1
    11     6     7   1
    12     6    24   1
    13     7     8  ar
    14     7    12  ar
    15     8     9  ar
    16     9    10  ar
    17    10    11  ar
    18    11    12  ar
    19    12    13   1
    20    13    14   1
    21    14    15   1
    22    15    16   1
    23    16    17   1
    24    17    18   1
    25    18    19   2
    26    19    20   1
    27    20    21   1
    28    21    22   1
    29    22    23   1
    30    23    24   1
    31    24    25   1
    32     1    26   1
    33     2    27   1
    34     2    28   1
    35     3    29   1
    36     4    30   1
    37     5    31   1
    38     8    32   1
    39     9    33   1
    40    10    34   1
    41    11    35   1
    42    14    36   1
    43    14    37   1
    44    15    38   1
    45    15    39   1
    46    16    40   1
    47    17    41   1
    48    17    42   1
    49    19    43   1
    50    20    44   1
    51    20    45   1
    52    22    46   1
    53    23    47   1
    54    23    48   1
    55    24    49   1
    56    25    50   1
@<TRIPOS>SUBSTRUCTURE
     1  SY9      1

