@<TRIPOS>MOLECULE
2xys_ligand_055
    50    56
SMALL
GAST_HUCK
****
This file was generated by PARSER (from files_GN.cpp)

@<TRIPOS>ATOM
      1 CAV       -44.5701   -3.1739  -18.5223 C.3         1 SY9      -0.0392
      2 CAU       -43.8302   -2.9210  -19.8653 C.3         1 SY9      -0.0074
      3 CAT       -44.7519   -3.4839  -20.9991 C.3         1 SY9      -0.0009
      4 CAN       -45.9688   -2.5080  -21.0582 C.3         1 SY9       0.0127
      5 CAK       -46.8203   -2.5979  -19.7468 C.3         1 SY9       0.0377
      6 NAH       -47.6660   -1.4480  -19.7630 N.pl3       1 SY9      -0.2664
      7 CAA       -47.2079   -0.5323  -18.8784 C.ar        1 SY9       0.0752
      8 CAF       -47.6090    0.8039  -18.6704 C.ar        1 SY9      -0.0107
      9 CAE       -46.9555    1.5800  -17.6928 C.ar        1 SY9      -0.0448
     10 CAD       -45.9121    1.0239  -16.9241 C.ar        1 SY9      -0.0454
     11 CAC       -45.5160   -0.3119  -17.1282 C.ar        1 SY9      -0.0502
     12 CAB       -46.1609   -1.0802  -18.1183 C.ar        1 SY9      -0.0229
     13 CAG       -45.9899   -2.5184  -18.4168 C.3         1 SY9       0.0241
     14 CAW       -46.6022   -3.3726  -17.2768 C.3         1 SY9      -0.0311
     15 CAX       -46.0812   -4.7922  -17.5579 C.3         1 SY9      -0.0400
     16 NAY       -44.7964   -4.6444  -18.2982 N.4         1 SY9       0.2407
     17 CAS       -44.6649   -5.5305  -19.5123 C.3         1 SY9      -0.0074
     18 CAR       -45.1545   -4.8909  -20.7487 C.2         1 SY9      -0.0310
     19 CAQ       -46.0097   -5.5539  -21.5576 C.2         1 SY9      -0.0782
     20 CAP       -46.6515   -5.0063  -22.7405 C.3         1 SY9       0.0552
     21 OAO       -47.5266   -3.8980  -22.4365 O.3         1 SY9      -0.3712
     22 CAM       -46.8997   -2.6052  -22.3034 C.3         1 SY9       0.0708
     23 CAL       -47.9836   -1.4786  -22.2210 C.3         1 SY9       0.0233
     24 CAI       -48.6470   -1.3090  -20.8164 C.3         1 SY9       0.1466
     25 OAJ       -49.6901   -2.2683  -20.6382 O.3         1 SY9      -0.3686
     26 H1        -43.9351   -2.8021  -17.7144 H           1 SY9       0.0728
     27 H2        -42.8670   -3.4381  -19.8643 H           1 SY9       0.0333
     28 H3        -43.6142   -1.8565  -19.9863 H           1 SY9       0.0333
     29 H4        -44.1973   -3.4301  -21.9410 H           1 SY9       0.0453
     30 H5        -45.5494   -1.4963  -21.1223 H           1 SY9       0.0364
     31 H6        -47.4231   -3.5115  -19.7578 H           1 SY9       0.0464
     32 H7        -48.3638    1.2191  -19.2180 H           1 SY9       0.0603
     33 H8        -47.2428    2.5487  -17.5358 H           1 SY9       0.0812
     34 H9        -45.4484    1.5903  -16.2106 H           1 SY9       0.0608
     35 H10       -44.7779   -0.7188  -16.5506 H           1 SY9       0.0786
     36 H11       -47.6958   -3.3385  -17.2620 H           1 SY9       0.0203
     37 H12       -46.2318   -3.0428  -16.3000 H           1 SY9       0.0203
     38 H13       -46.8359   -5.3396  -18.1320 H           1 SY9       0.0805
     39 H14       -45.9097   -5.3312  -16.6226 H           1 SY9       0.0805
     40 H15       -44.0629   -4.9509  -17.6540 H           1 SY9       0.2039
     41 H16       -43.6015   -5.7353  -19.6531 H           1 SY9       0.0964
     42 H17       -45.1240   -6.5053  -19.3180 H           1 SY9       0.0964
     43 H18       -46.2462   -6.4930  -21.3276 H           1 SY9       0.0266
     44 H19       -47.2820   -5.7785  -23.1870 H           1 SY9       0.0635
     45 H20       -45.8999   -4.7436  -23.4896 H           1 SY9       0.0635
     46 H21       -46.3095   -2.4093  -23.2063 H           1 SY9       0.0604
     47 H22       -48.7551   -1.6545  -22.9752 H           1 SY9       0.0338
     48 H23       -47.5004   -0.5289  -22.4722 H           1 SY9       0.0338
     49 H24       -49.1291   -0.3309  -20.7800 H           1 SY9       0.0886
     50 H25       -49.2727   -3.1466  -20.7586 H           1 SY9       0.2123
@<TRIPOS>BOND
     1     1     2   1
     2     1    13   1
     3     1    16   1
     4     2     3   1
     5     3     4   1
     6     3    18   1
     7     4     5   1
     8     4    22   1
     9     5     6   1
    10     5    13   1
    11     6     7   1
    12     6    24   1
    13     7     8  ar
    14     7    12  ar
    15     8     9  ar
    16     9    10  ar
    17    10    11  ar
    18    11    12  ar
    19    12    13   1
    20    13    14   1
    21    14    15   1
    22    15    16   1
    23    16    17   1
    24    17    18   1
    25    18    19   2
    26    19    20   1
    27    20    21   1
    28    21    22   1
    29    22    23   1
    30    23    24   1
    31    24    25   1
    32     1    26   1
    33     2    27   1
    34     2    28   1
    35     3    29   1
    36     4    30   1
    37     5    31   1
    38     8    32   1
    39     9    33   1
    40    10    34   1
    41    11    35   1
    42    14    36   1
    43    14    37   1
    44    15    38   1
    45    15    39   1
    46    16    40   1
    47    17    41   1
    48    17    42   1
    49    19    43   1
    50    20    44   1
    51    20    45   1
    52    22    46   1
    53    23    47   1
    54    23    48   1
    55    24    49   1
    56    25    50   1
@<TRIPOS>SUBSTRUCTURE
     1  SY9      1

