@<TRIPOS>MOLECULE
2xys_ligand_089
    50    56
SMALL
GAST_HUCK
****
This file was generated by PARSER (from files_GN.cpp)

@<TRIPOS>ATOM
      1 CAV       -46.7133    6.5435  -20.1402 C.3         1 SY9      -0.0392
      2 CAU       -47.0637    7.5267  -21.2886 C.3         1 SY9      -0.0074
      3 CAT       -48.2678    8.3871  -20.7967 C.3         1 SY9      -0.0009
      4 CAN       -47.6808    9.2987  -19.6745 C.3         1 SY9       0.0127
      5 CAK       -47.2335    8.4532  -18.4338 C.3         1 SY9       0.0377
      6 NAH       -46.4249    9.3197  -17.6397 N.pl3       1 SY9      -0.2664
      7 CAA       -45.1240    8.9835  -17.7825 C.ar        1 SY9       0.0752
      8 CAF       -43.9636    9.6635  -17.3560 C.ar        1 SY9      -0.0107
      9 CAE       -42.6954    9.1131  -17.6249 C.ar        1 SY9      -0.0448
     10 CAD       -42.5862    7.8946  -18.3245 C.ar        1 SY9      -0.0454
     11 CAC       -43.7445    7.2263  -18.7647 C.ar        1 SY9      -0.0502
     12 CAB       -45.0133    7.7840  -18.5037 C.ar        1 SY9      -0.0229
     13 CAG       -46.3488    7.2043  -18.7674 C.3         1 SY9       0.0241
     14 CAW       -46.6062    6.0168  -17.8035 C.3         1 SY9      -0.0311
     15 CAX       -47.8259    5.2988  -18.4054 C.3         1 SY9      -0.0400
     16 NAY       -47.8727    5.6313  -19.8557 N.4         1 SY9       0.2407
     17 CAS       -49.2203    6.0822  -20.3682 C.3         1 SY9      -0.0074
     18 CAR       -49.3994    7.5485  -20.3398 C.2         1 SY9      -0.0310
     19 CAQ       -50.5339    8.0880  -19.8473 C.2         1 SY9      -0.0782
     20 CAP       -50.7687    9.5078  -19.6233 C.3         1 SY9       0.0552
     21 OAO       -49.8364   10.0969  -18.6846 O.3         1 SY9      -0.3712
     22 CAM       -48.5550   10.5000  -19.2141 C.3         1 SY9       0.0708
     23 CAL       -47.7259   11.3356  -18.1801 C.3         1 SY9       0.0233
     24 CAI       -47.0118   10.5089  -17.0666 C.3         1 SY9       0.1466
     25 OAJ       -47.9059   10.1706  -16.0068 O.3         1 SY9      -0.3686
     26 H1        -45.8755    5.9340  -20.4755 H           1 SY9       0.0728
     27 H2        -47.3305    6.9677  -22.1915 H           1 SY9       0.0333
     28 H3        -46.2043    8.1475  -21.5370 H           1 SY9       0.0333
     29 H4        -48.6007    9.0079  -21.6339 H           1 SY9       0.0453
     30 H5        -46.7849    9.7704  -20.1017 H           1 SY9       0.0364
     31 H6        -48.1091    8.1387  -17.8663 H           1 SY9       0.0464
     32 H7        -44.0303   10.5545  -16.8651 H           1 SY9       0.0603
     33 H8        -41.8499    9.5996  -17.3160 H           1 SY9       0.0812
     34 H9        -41.6636    7.4984  -18.5201 H           1 SY9       0.0608
     35 H10       -43.6564    6.3431  -19.2655 H           1 SY9       0.0786
     36 H11       -46.7939    6.3421  -16.7749 H           1 SY9       0.0203
     37 H12       -45.7563    5.3276  -17.7966 H           1 SY9       0.0203
     38 H13       -48.7212    5.6298  -17.8782 H           1 SY9       0.0805
     39 H14       -47.7385    4.2171  -18.2769 H           1 SY9       0.0805
     40 H15       -47.6738    4.7574  -20.3483 H           1 SY9       0.2039
     41 H16       -49.2845    5.7737  -21.4146 H           1 SY9       0.0964
     42 H17       -50.0201    5.5405  -19.8531 H           1 SY9       0.0964
     43 H18       -51.2721    7.4736  -19.5831 H           1 SY9       0.0266
     44 H19       -51.7625    9.6312  -19.1841 H           1 SY9       0.0635
     45 H20       -50.7794   10.0396  -20.5796 H           1 SY9       0.0635
     46 H21       -48.7398   11.1519  -20.0735 H           1 SY9       0.0604
     47 H22       -48.3429   12.1180  -17.7379 H           1 SY9       0.0338
     48 H23       -46.9340   11.8402  -18.7350 H           1 SY9       0.0338
     49 H24       -46.2489   11.1400  -16.6109 H           1 SY9       0.0886
     50 H25       -48.6372    9.6696  -16.4179 H           1 SY9       0.2123
@<TRIPOS>BOND
     1     1     2   1
     2     1    13   1
     3     1    16   1
     4     2     3   1
     5     3     4   1
     6     3    18   1
     7     4     5   1
     8     4    22   1
     9     5     6   1
    10     5    13   1
    11     6     7   1
    12     6    24   1
    13     7     8  ar
    14     7    12  ar
    15     8     9  ar
    16     9    10  ar
    17    10    11  ar
    18    11    12  ar
    19    12    13   1
    20    13    14   1
    21    14    15   1
    22    15    16   1
    23    16    17   1
    24    17    18   1
    25    18    19   2
    26    19    20   1
    27    20    21   1
    28    21    22   1
    29    22    23   1
    30    23    24   1
    31    24    25   1
    32     1    26   1
    33     2    27   1
    34     2    28   1
    35     3    29   1
    36     4    30   1
    37     5    31   1
    38     8    32   1
    39     9    33   1
    40    10    34   1
    41    11    35   1
    42    14    36   1
    43    14    37   1
    44    15    38   1
    45    15    39   1
    46    16    40   1
    47    17    41   1
    48    17    42   1
    49    19    43   1
    50    20    44   1
    51    20    45   1
    52    22    46   1
    53    23    47   1
    54    23    48   1
    55    24    49   1
    56    25    50   1
@<TRIPOS>SUBSTRUCTURE
     1  SY9      1

