@<TRIPOS>MOLECULE
2xys_ligand_065
    50    56
SMALL
GAST_HUCK
****
This file was generated by PARSER (from files_GN.cpp)

@<TRIPOS>ATOM
      1 CAV       -29.1273    3.1978  -13.6602 C.3         1 SY9      -0.0392
      2 CAU       -29.8524    3.4819  -12.3168 C.3         1 SY9      -0.0074
      3 CAT       -31.3643    3.1503  -12.5339 C.3         1 SY9      -0.0009
      4 CAN       -31.4668    1.5988  -12.6556 C.3         1 SY9       0.0127
      5 CAK       -30.6143    1.0347  -13.8445 C.3         1 SY9       0.0377
      6 NAH       -30.3299   -0.3191  -13.4682 N.pl3       1 SY9      -0.2664
      7 CAA       -29.0082   -0.4779  -13.2338 C.ar        1 SY9       0.0752
      8 CAF       -28.3168   -1.5936  -12.7156 C.ar        1 SY9      -0.0107
      9 CAE       -26.9273   -1.5129  -12.5042 C.ar        1 SY9      -0.0448
     10 CAD       -26.2309   -0.3269  -12.8117 C.ar        1 SY9      -0.0454
     11 CAC       -26.9210    0.7852  -13.3328 C.ar        1 SY9      -0.0502
     12 CAB       -28.3157    0.7036  -13.5294 C.ar        1 SY9      -0.0229
     13 CAG       -29.2187    1.7089  -14.1234 C.3         1 SY9       0.0241
     14 CAW       -28.9216    1.8657  -15.6369 C.3         1 SY9      -0.0311
     15 CAX       -29.6819    3.1465  -16.0139 C.3         1 SY9      -0.0400
     16 NAY       -29.7047    4.0008  -14.7927 N.4         1 SY9       0.2407
     17 CAS       -31.0254    4.6683  -14.5243 C.3         1 SY9      -0.0074
     18 CAR       -31.9344    3.8629  -13.6946 C.2         1 SY9      -0.0310
     19 CAQ       -33.2467    3.7901  -13.9992 C.2         1 SY9      -0.0782
     20 CAP       -34.1978    2.9317  -13.3222 C.3         1 SY9       0.0552
     21 OAO       -33.8554    1.5531  -13.5408 O.3         1 SY9      -0.3712
     22 CAM       -32.8873    0.9259  -12.6704 C.3         1 SY9       0.0708
     23 CAL       -32.8100   -0.5831  -13.1154 C.3         1 SY9       0.0233
     24 CAI       -31.3822   -1.2147  -13.0380 C.3         1 SY9       0.1466
     25 OAJ       -31.3210   -2.4256  -13.7856 O.3         1 SY9      -0.3686
     26 H1        -28.0781    3.4902  -13.5476 H           1 SY9       0.0728
     27 H2        -29.7323    4.5348  -12.0472 H           1 SY9       0.0333
     28 H3        -29.4081    2.8913  -11.5104 H           1 SY9       0.0333
     29 H4        -31.8947    3.4674  -11.6336 H           1 SY9       0.0453
     30 H5        -31.0189    1.2327  -11.7205 H           1 SY9       0.0364
     31 H6        -31.2227    1.0423  -14.7541 H           1 SY9       0.0464
     32 H7        -28.8132   -2.4559  -12.4838 H           1 SY9       0.0603
     33 H8        -26.4221   -2.3176  -12.1254 H           1 SY9       0.0812
     34 H9        -25.2211   -0.2757  -12.6625 H           1 SY9       0.0608
     35 H10       -26.4092    1.6365  -13.5720 H           1 SY9       0.0786
     36 H11       -29.2529    1.0073  -16.2278 H           1 SY9       0.0203
     37 H12       -27.8520    2.0184  -15.8160 H           1 SY9       0.0203
     38 H13       -30.6864    2.8717  -16.3485 H           1 SY9       0.0805
     39 H14       -29.1807    3.6710  -16.8308 H           1 SY9       0.0805
     40 H15       -29.0431    4.7619  -14.9685 H           1 SY9       0.2039
     41 H16       -31.4852    4.9684  -15.4666 H           1 SY9       0.0964
     42 H17       -30.8183    5.5924  -13.9813 H           1 SY9       0.0964
     43 H18       -33.5935    4.3268  -14.7627 H           1 SY9       0.0266
     44 H19       -35.1882    3.0835  -13.7576 H           1 SY9       0.0635
     45 H20       -34.2728    3.1788  -12.2592 H           1 SY9       0.0635
     46 H21       -33.2890    0.9569  -11.6510 H           1 SY9       0.0604
     47 H22       -33.1386   -0.6650  -14.1560 H           1 SY9       0.0338
     48 H23       -33.5039   -1.1811  -12.5164 H           1 SY9       0.0338
     49 H24       -31.2068   -1.4603  -11.9881 H           1 SY9       0.0886
     50 H25       -31.4823   -2.1666  -14.7195 H           1 SY9       0.2123
@<TRIPOS>BOND
     1     1     2   1
     2     1    13   1
     3     1    16   1
     4     2     3   1
     5     3     4   1
     6     3    18   1
     7     4     5   1
     8     4    22   1
     9     5     6   1
    10     5    13   1
    11     6     7   1
    12     6    24   1
    13     7     8  ar
    14     7    12  ar
    15     8     9  ar
    16     9    10  ar
    17    10    11  ar
    18    11    12  ar
    19    12    13   1
    20    13    14   1
    21    14    15   1
    22    15    16   1
    23    16    17   1
    24    17    18   1
    25    18    19   2
    26    19    20   1
    27    20    21   1
    28    21    22   1
    29    22    23   1
    30    23    24   1
    31    24    25   1
    32     1    26   1
    33     2    27   1
    34     2    28   1
    35     3    29   1
    36     4    30   1
    37     5    31   1
    38     8    32   1
    39     9    33   1
    40    10    34   1
    41    11    35   1
    42    14    36   1
    43    14    37   1
    44    15    38   1
    45    15    39   1
    46    16    40   1
    47    17    41   1
    48    17    42   1
    49    19    43   1
    50    20    44   1
    51    20    45   1
    52    22    46   1
    53    23    47   1
    54    23    48   1
    55    24    49   1
    56    25    50   1
@<TRIPOS>SUBSTRUCTURE
     1  SY9      1

