@<TRIPOS>MOLECULE
2xys_ligand_046
    50    56
SMALL
GAST_HUCK
****
This file was generated by PARSER (from files_GN.cpp)

@<TRIPOS>ATOM
      1 CAV       -41.3542    7.0607  -16.3591 C.3         1 SY9      -0.0392
      2 CAU       -41.0091    8.2998  -15.4895 C.3         1 SY9      -0.0074
      3 CAT       -40.6605    9.4612  -16.4762 C.3         1 SY9      -0.0009
      4 CAN       -42.0038    9.8846  -17.1501 C.3         1 SY9       0.0127
      5 CAK       -42.6926    8.7063  -17.9145 C.3         1 SY9       0.0377
      6 NAH       -44.0863    9.0452  -17.9294 N.pl3       1 SY9      -0.2664
      7 CAA       -44.7911    8.1628  -17.1905 C.ar        1 SY9       0.0752
      8 CAF       -46.1525    8.1955  -16.8239 C.ar        1 SY9      -0.0107
      9 CAE       -46.6676    7.1781  -15.9997 C.ar        1 SY9      -0.0448
     10 CAD       -45.8289    6.1394  -15.5499 C.ar        1 SY9      -0.0454
     11 CAC       -44.4701    6.1094  -15.9147 C.ar        1 SY9      -0.0502
     12 CAB       -43.9548    7.1373  -16.7302 C.ar        1 SY9      -0.0229
     13 CAG       -42.5946    7.2691  -17.2870 C.3         1 SY9       0.0241
     14 CAW       -42.3381    6.1721  -18.3502 C.3         1 SY9      -0.0311
     15 CAX       -40.8190    6.2282  -18.5651 C.3         1 SY9      -0.0400
     16 NAY       -40.2243    6.6827  -17.2772 N.4         1 SY9       0.2407
     17 CAS       -39.1208    7.6942  -17.4244 C.3         1 SY9      -0.0074
     18 CAR       -39.6151    9.0813  -17.4508 C.2         1 SY9      -0.0310
     19 CAQ       -39.1249    9.9608  -18.3476 C.2         1 SY9      -0.0782
     20 CAP       -39.6177   11.3128  -18.5307 C.3         1 SY9       0.0552
     21 OAO       -40.9755   11.2940  -18.9955 O.3         1 SY9      -0.3712
     22 CAM       -42.0510   11.1808  -18.0365 C.3         1 SY9       0.0708
     23 CAL       -43.3903   11.2688  -18.8630 C.3         1 SY9       0.0233
     24 CAI       -44.5491   10.3446  -18.3680 C.3         1 SY9       0.1466
     25 OAJ       -45.5331   10.1869  -19.3893 O.3         1 SY9      -0.3686
     26 H1        -41.5341    6.2140  -15.6896 H           1 SY9       0.0728
     27 H2        -40.1524    8.0795  -14.8469 H           1 SY9       0.0333
     28 H3        -41.8456    8.5502  -14.8295 H           1 SY9       0.0333
     29 H4        -40.2902   10.2908  -15.8682 H           1 SY9       0.0453
     30 H5        -42.6524   10.1356  -16.3037 H           1 SY9       0.0364
     31 H6        -42.3112    8.6828  -18.9352 H           1 SY9       0.0464
     32 H7        -46.7650    8.9475  -17.1451 H           1 SY9       0.0603
     33 H8        -47.6509    7.1943  -15.7225 H           1 SY9       0.0812
     34 H9        -46.2122    5.4031  -14.9583 H           1 SY9       0.0608
     35 H10       -43.8711    5.3461  -15.5952 H           1 SY9       0.0786
     36 H11       -42.8836    6.3431  -19.2834 H           1 SY9       0.0203
     37 H12       -42.6077    5.1853  -17.9616 H           1 SY9       0.0203
     38 H13       -40.6001    6.9107  -19.3943 H           1 SY9       0.0805
     39 H14       -40.4355    5.2385  -18.8212 H           1 SY9       0.0805
     40 H15       -39.7863    5.8564  -16.8629 H           1 SY9       0.2039
     41 H16       -38.4983    7.4481  -18.2899 H           1 SY9       0.0964
     42 H17       -38.4696    7.5963  -16.5533 H           1 SY9       0.0964
     43 H18       -38.3952    9.6659  -18.9586 H           1 SY9       0.0266
     44 H19       -39.0262   11.8066  -19.3045 H           1 SY9       0.0635
     45 H20       -39.5063   11.9051  -17.6215 H           1 SY9       0.0635
     46 H21       -42.0004   12.0535  -17.3732 H           1 SY9       0.0604
     47 H22       -43.1910   11.0073  -19.9052 H           1 SY9       0.0338
     48 H23       -43.7435   12.2970  -18.8782 H           1 SY9       0.0338
     49 H24       -45.0271   10.8496  -17.5230 H           1 SY9       0.0886
     50 H25       -45.1133    9.6096  -20.0616 H           1 SY9       0.2123
@<TRIPOS>BOND
     1     1     2   1
     2     1    13   1
     3     1    16   1
     4     2     3   1
     5     3     4   1
     6     3    18   1
     7     4     5   1
     8     4    22   1
     9     5     6   1
    10     5    13   1
    11     6     7   1
    12     6    24   1
    13     7     8  ar
    14     7    12  ar
    15     8     9  ar
    16     9    10  ar
    17    10    11  ar
    18    11    12  ar
    19    12    13   1
    20    13    14   1
    21    14    15   1
    22    15    16   1
    23    16    17   1
    24    17    18   1
    25    18    19   2
    26    19    20   1
    27    20    21   1
    28    21    22   1
    29    22    23   1
    30    23    24   1
    31    24    25   1
    32     1    26   1
    33     2    27   1
    34     2    28   1
    35     3    29   1
    36     4    30   1
    37     5    31   1
    38     8    32   1
    39     9    33   1
    40    10    34   1
    41    11    35   1
    42    14    36   1
    43    14    37   1
    44    15    38   1
    45    15    39   1
    46    16    40   1
    47    17    41   1
    48    17    42   1
    49    19    43   1
    50    20    44   1
    51    20    45   1
    52    22    46   1
    53    23    47   1
    54    23    48   1
    55    24    49   1
    56    25    50   1
@<TRIPOS>SUBSTRUCTURE
     1  SY9      1

