@<TRIPOS>MOLECULE
2xys_ligand_078
    50    56
SMALL
GAST_HUCK
****
This file was generated by PARSER (from files_GN.cpp)

@<TRIPOS>ATOM
      1 CAV       -32.7776    4.0566  -13.3208 C.3         1 SY9      -0.0392
      2 CAU       -34.2712    3.8433  -12.9500 C.3         1 SY9      -0.0074
      3 CAT       -34.8657    2.8553  -14.0071 C.3         1 SY9      -0.0009
      4 CAN       -34.2333    1.4573  -13.7066 C.3         1 SY9       0.0127
      5 CAK       -32.6686    1.4688  -13.8021 C.3         1 SY9       0.0377
      6 NAH       -32.2559    0.3948  -12.9473 N.pl3       1 SY9      -0.2664
      7 CAA       -31.6033    0.8778  -11.8708 C.ar        1 SY9       0.0752
      8 CAF       -31.1651    0.1998  -10.7195 C.ar        1 SY9      -0.0107
      9 CAE       -30.5213    0.9234   -9.6987 C.ar        1 SY9      -0.0448
     10 CAD       -30.3118    2.3102   -9.8265 C.ar        1 SY9      -0.0454
     11 CAC       -30.7394    2.9825  -10.9880 C.ar        1 SY9      -0.0502
     12 CAB       -31.4251    2.2599  -11.9831 C.ar        1 SY9      -0.0229
     13 CAG       -31.9196    2.7507  -13.2785 C.3         1 SY9       0.0241
     14 CAW       -30.7220    3.1528  -14.1714 C.3         1 SY9      -0.0311
     15 CAX       -31.3934    3.9484  -15.2981 C.3         1 SY9      -0.0400
     16 NAY       -32.6100    4.5860  -14.7168 N.4         1 SY9       0.2407
     17 CAS       -33.8323    4.5306  -15.5930 C.3         1 SY9      -0.0074
     18 CAR       -34.6307    3.3097  -15.3945 C.2         1 SY9      -0.0310
     19 CAQ       -35.1173    2.6376  -16.4575 C.2         1 SY9      -0.0782
     20 CAP       -35.8174    1.3711  -16.3759 C.3         1 SY9       0.0552
     21 OAO       -34.9355    0.3498  -15.8815 O.3         1 SY9      -0.3712
     22 CAM       -34.7776    0.1897  -14.4551 C.3         1 SY9       0.0708
     23 CAL       -33.8346   -1.0581  -14.2536 C.3         1 SY9       0.0233
     24 CAI       -32.8119   -0.9368  -13.0777 C.3         1 SY9       0.1466
     25 OAJ       -31.7533   -1.8843  -13.2268 O.3         1 SY9      -0.3686
     26 H1        -32.3609    4.7980  -12.6323 H           1 SY9       0.0728
     27 H2        -34.8045    4.7970  -12.9793 H           1 SY9       0.0333
     28 H3        -34.3625    3.4655  -11.9277 H           1 SY9       0.0333
     29 H4        -35.9452    2.8020  -13.8282 H           1 SY9       0.0453
     30 H5        -34.5014    1.2712  -12.6567 H           1 SY9       0.0364
     31 H6        -32.3717    1.2578  -14.8365 H           1 SY9       0.0464
     32 H7        -31.3094   -0.8068  -10.6239 H           1 SY9       0.0603
     33 H8        -30.1944    0.4391   -8.8626 H           1 SY9       0.0812
     34 H9        -29.8409    2.8273   -9.0879 H           1 SY9       0.0608
     35 H10       -30.5407    3.9780  -11.1013 H           1 SY9       0.0786
     36 H11       -30.1644    2.2905  -14.5475 H           1 SY9       0.0203
     37 H12       -30.0251    3.8039  -13.6334 H           1 SY9       0.0203
     38 H13       -31.6351    3.2603  -16.1117 H           1 SY9       0.0805
     39 H14       -30.7133    4.7091  -15.6833 H           1 SY9       0.0805
     40 H15       -32.3903    5.5798  -14.6187 H           1 SY9       0.2039
     41 H16       -33.5513    4.6896  -16.6375 H           1 SY9       0.0964
     42 H17       -34.4685    5.3783  -15.3270 H           1 SY9       0.0964
     43 H18       -34.9605    3.0021  -17.3703 H           1 SY9       0.0266
     44 H19       -36.1227    1.0667  -17.3804 H           1 SY9       0.0635
     45 H20       -36.7271    1.4580  -15.7761 H           1 SY9       0.0635
     46 H21       -35.7574   -0.0543  -14.0364 H           1 SY9       0.0604
     47 H22       -33.2481   -1.2087  -15.1657 H           1 SY9       0.0338
     48 H23       -34.4420   -1.9565  -14.1212 H           1 SY9       0.0338
     49 H24       -33.3476   -1.1812  -12.1562 H           1 SY9       0.0886
     50 H25       -31.3162   -1.6551  -14.0731 H           1 SY9       0.2123
@<TRIPOS>BOND
     1     1     2   1
     2     1    13   1
     3     1    16   1
     4     2     3   1
     5     3     4   1
     6     3    18   1
     7     4     5   1
     8     4    22   1
     9     5     6   1
    10     5    13   1
    11     6     7   1
    12     6    24   1
    13     7     8  ar
    14     7    12  ar
    15     8     9  ar
    16     9    10  ar
    17    10    11  ar
    18    11    12  ar
    19    12    13   1
    20    13    14   1
    21    14    15   1
    22    15    16   1
    23    16    17   1
    24    17    18   1
    25    18    19   2
    26    19    20   1
    27    20    21   1
    28    21    22   1
    29    22    23   1
    30    23    24   1
    31    24    25   1
    32     1    26   1
    33     2    27   1
    34     2    28   1
    35     3    29   1
    36     4    30   1
    37     5    31   1
    38     8    32   1
    39     9    33   1
    40    10    34   1
    41    11    35   1
    42    14    36   1
    43    14    37   1
    44    15    38   1
    45    15    39   1
    46    16    40   1
    47    17    41   1
    48    17    42   1
    49    19    43   1
    50    20    44   1
    51    20    45   1
    52    22    46   1
    53    23    47   1
    54    23    48   1
    55    24    49   1
    56    25    50   1
@<TRIPOS>SUBSTRUCTURE
     1  SY9      1

