@<TRIPOS>MOLECULE
2xys_ligand_059
    50    56
SMALL
GAST_HUCK
****
This file was generated by PARSER (from files_GN.cpp)

@<TRIPOS>ATOM
      1 CAV       -33.7133   -0.4135  -18.7897 C.3         1 SY9      -0.0392
      2 CAU       -34.7772   -1.5289  -18.6200 C.3         1 SY9      -0.0074
      3 CAT       -33.9985   -2.8514  -18.3268 C.3         1 SY9      -0.0009
      4 CAN       -33.4254   -2.7135  -16.8817 C.3         1 SY9       0.0127
      5 CAK       -32.4667   -1.4825  -16.7295 C.3         1 SY9       0.0377
      6 NAH       -32.5336   -1.1492  -15.3352 N.pl3       1 SY9      -0.2664
      7 CAA       -33.1466    0.0436  -15.1651 C.ar        1 SY9       0.0752
      8 CAF       -33.5694    0.6717  -13.9732 C.ar        1 SY9      -0.0107
      9 CAE       -34.2374    1.9118  -14.0421 C.ar        1 SY9      -0.0448
     10 CAD       -34.4747    2.5187  -15.2934 C.ar        1 SY9      -0.0454
     11 CAC       -34.0501    1.8915  -16.4794 C.ar        1 SY9      -0.0502
     12 CAB       -33.4004    0.6388  -16.4087 C.ar        1 SY9      -0.0229
     13 CAG       -32.8478   -0.1708  -17.5110 C.3         1 SY9       0.0241
     14 CAW       -31.6137    0.5275  -18.1320 C.3         1 SY9      -0.0311
     15 CAX       -31.3893   -0.2460  -19.4381 C.3         1 SY9      -0.0400
     16 NAY       -32.7293   -0.7252  -19.8820 N.4         1 SY9       0.2407
     17 CAS       -32.7438   -2.1350  -20.4072 C.3         1 SY9      -0.0074
     18 CAR       -32.9580   -3.1335  -19.3432 C.2         1 SY9      -0.0310
     19 CAQ       -32.2278   -4.2633  -19.3116 C.2         1 SY9      -0.0782
     20 CAP       -32.2991   -5.2553  -18.2585 C.3         1 SY9       0.0552
     21 OAO       -31.8385   -4.6960  -17.0204 O.3         1 SY9      -0.3712
     22 CAM       -32.7689   -3.9617  -16.1933 C.3         1 SY9       0.0708
     23 CAL       -31.9823   -3.5598  -14.8875 C.3         1 SY9       0.0233
     24 CAI       -32.3245   -2.1473  -14.3057 C.3         1 SY9       0.1466
     25 OAJ       -31.2822   -1.7523  -13.4184 O.3         1 SY9      -0.3686
     26 H1        -34.2254    0.5139  -19.0697 H           1 SY9       0.0728
     27 H2        -35.3597   -1.6298  -19.5351 H           1 SY9       0.0333
     28 H3        -35.4739   -1.2653  -17.8179 H           1 SY9       0.0333
     29 H4        -34.7271   -3.6669  -18.3382 H           1 SY9       0.0453
     30 H5        -34.3123   -2.5192  -16.2597 H           1 SY9       0.0364
     31 H6        -31.4455   -1.7844  -16.9835 H           1 SY9       0.0464
     32 H7        -33.4119    0.2338  -13.0620 H           1 SY9       0.0603
     33 H8        -34.5493    2.3730  -13.1845 H           1 SY9       0.0812
     34 H9        -34.9481    3.4238  -15.3378 H           1 SY9       0.0608
     35 H10       -34.2133    2.3392  -17.3831 H           1 SY9       0.0786
     36 H11       -30.7324    0.5116  -17.4875 H           1 SY9       0.0203
     37 H12       -31.8547    1.5579  -18.3770 H           1 SY9       0.0203
     38 H13       -30.6961   -1.0730  -19.2435 H           1 SY9       0.0805
     39 H14       -30.9498    0.4003  -20.2049 H           1 SY9       0.0805
     40 H15       -32.9891   -0.1355  -20.6765 H           1 SY9       0.2039
     41 H16       -31.8418   -2.3284  -20.9935 H           1 SY9       0.0964
     42 H17       -33.5786   -2.2165  -21.1075 H           1 SY9       0.0964
     43 H18       -31.5649   -4.4276  -20.0354 H           1 SY9       0.0266
     44 H19       -31.6346   -6.0858  -18.5021 H           1 SY9       0.0635
     45 H20       -33.3044   -5.6679  -18.1704 H           1 SY9       0.0635
     46 H21       -33.5677   -4.6485  -15.8991 H           1 SY9       0.0604
     47 H22       -30.9064   -3.5617  -15.1082 H           1 SY9       0.0338
     48 H23       -32.1427   -4.3177  -14.1177 H           1 SY9       0.0338
     49 H24       -33.2470   -2.2407  -13.7269 H           1 SY9       0.0886
     50 H25       -31.3039   -0.7608  -13.3903 H           1 SY9       0.2123
@<TRIPOS>BOND
     1     1     2   1
     2     1    13   1
     3     1    16   1
     4     2     3   1
     5     3     4   1
     6     3    18   1
     7     4     5   1
     8     4    22   1
     9     5     6   1
    10     5    13   1
    11     6     7   1
    12     6    24   1
    13     7     8  ar
    14     7    12  ar
    15     8     9  ar
    16     9    10  ar
    17    10    11  ar
    18    11    12  ar
    19    12    13   1
    20    13    14   1
    21    14    15   1
    22    15    16   1
    23    16    17   1
    24    17    18   1
    25    18    19   2
    26    19    20   1
    27    20    21   1
    28    21    22   1
    29    22    23   1
    30    23    24   1
    31    24    25   1
    32     1    26   1
    33     2    27   1
    34     2    28   1
    35     3    29   1
    36     4    30   1
    37     5    31   1
    38     8    32   1
    39     9    33   1
    40    10    34   1
    41    11    35   1
    42    14    36   1
    43    14    37   1
    44    15    38   1
    45    15    39   1
    46    16    40   1
    47    17    41   1
    48    17    42   1
    49    19    43   1
    50    20    44   1
    51    20    45   1
    52    22    46   1
    53    23    47   1
    54    23    48   1
    55    24    49   1
    56    25    50   1
@<TRIPOS>SUBSTRUCTURE
     1  SY9      1

