@<TRIPOS>MOLECULE
2xys_ligand_084
    50    56
SMALL
GAST_HUCK
****
This file was generated by PARSER (from files_GN.cpp)

@<TRIPOS>ATOM
      1 CAV       -45.6189    5.9804  -18.1498 C.3         1 SY9      -0.0392
      2 CAU       -45.1370    7.0338  -19.1848 C.3         1 SY9      -0.0074
      3 CAT       -46.2110    8.1666  -19.2220 C.3         1 SY9      -0.0009
      4 CAN       -46.0645    8.9054  -17.8604 C.3         1 SY9       0.0127
      5 CAK       -46.4619    7.9670  -16.6690 C.3         1 SY9       0.0377
      6 NAH       -45.9471    8.6047  -15.5011 N.pl3       1 SY9      -0.2664
      7 CAA       -44.8305    7.9619  -15.0924 C.ar        1 SY9       0.0752
      8 CAF       -43.8742    8.3324  -14.1247 C.ar        1 SY9      -0.0107
      9 CAE       -42.7445    7.5110  -13.9239 C.ar        1 SY9      -0.0448
     10 CAD       -42.5869    6.3168  -14.6508 C.ar        1 SY9      -0.0454
     11 CAC       -43.5554    5.9327  -15.5989 C.ar        1 SY9      -0.0502
     12 CAB       -44.6654    6.7746  -15.8239 C.ar        1 SY9      -0.0229
     13 CAG       -45.8233    6.5355  -16.7050 C.3         1 SY9       0.0241
     14 CAW       -46.7393    5.4342  -16.1149 C.3         1 SY9      -0.0311
     15 CAX       -47.6575    5.0533  -17.2888 C.3         1 SY9      -0.0400
     16 NAY       -46.9439    5.3953  -18.5470 N.4         1 SY9       0.2407
     17 CAS       -47.7410    6.1738  -19.5659 C.3         1 SY9      -0.0074
     18 CAR       -47.5752    7.6376  -19.4596 C.2         1 SY9      -0.0310
     19 CAQ       -48.6564    8.4457  -19.5193 C.2         1 SY9      -0.0782
     20 CAP       -48.6535    9.8739  -19.2516 C.3         1 SY9       0.0552
     21 OAO       -48.2094   10.1843  -17.9135 O.3         1 SY9      -0.3712
     22 CAM       -46.7832   10.2765  -17.7221 C.3         1 SY9       0.0708
     23 CAL       -46.4387   10.8899  -16.3251 C.3         1 SY9       0.0233
     24 CAI       -46.4696    9.8972  -15.1201 C.3         1 SY9       0.1466
     25 OAJ       -47.8064    9.7537  -14.6403 O.3         1 SY9      -0.3686
     26 H1        -44.8845    5.1721  -18.1104 H           1 SY9       0.0728
     27 H2        -45.0593    6.5781  -20.1731 H           1 SY9       0.0333
     28 H3        -44.1421    7.4025  -18.9209 H           1 SY9       0.0333
     29 H4        -45.9538    8.8560  -20.0305 H           1 SY9       0.0453
     30 H5        -44.9995    9.1592  -17.7634 H           1 SY9       0.0364
     31 H6        -47.5482    7.8792  -16.6008 H           1 SY9       0.0464
     32 H7        -43.9725    9.1953  -13.5885 H           1 SY9       0.0603
     33 H8        -42.0323    7.7885  -13.2473 H           1 SY9       0.0812
     34 H9        -41.7679    5.7237  -14.4900 H           1 SY9       0.0608
     35 H10       -43.4502    5.0549  -16.1108 H           1 SY9       0.0786
     36 H11       -47.3109    5.7808  -15.2504 H           1 SY9       0.0203
     37 H12       -46.1524    4.5596  -15.8151 H           1 SY9       0.0203
     38 H13       -48.5967    5.5984  -17.1918 H           1 SY9       0.0805
     39 H14       -47.8764    3.9825  -17.2767 H           1 SY9       0.0805
     40 H15       -46.7516    4.4975  -18.9953 H           1 SY9       0.2039
     41 H16       -47.3774    5.8809  -20.5553 H           1 SY9       0.0964
     42 H17       -48.7905    5.8625  -19.5422 H           1 SY9       0.0964
     43 H18       -49.5437    8.0375  -19.7160 H           1 SY9       0.0266
     44 H19       -49.6796   10.2469  -19.3258 H           1 SY9       0.0635
     45 H20       -48.0729   10.4004  -20.0156 H           1 SY9       0.0635
     46 H21       -46.3776   10.9658  -18.4696 H           1 SY9       0.0604
     47 H22       -47.1020   11.7357  -16.1241 H           1 SY9       0.0338
     48 H23       -45.4176   11.2809  -16.3850 H           1 SY9       0.0338
     49 H24       -45.8902   10.3285  -14.3010 H           1 SY9       0.0886
     50 H25       -48.3432    9.5121  -15.4248 H           1 SY9       0.2123
@<TRIPOS>BOND
     1     1     2   1
     2     1    13   1
     3     1    16   1
     4     2     3   1
     5     3     4   1
     6     3    18   1
     7     4     5   1
     8     4    22   1
     9     5     6   1
    10     5    13   1
    11     6     7   1
    12     6    24   1
    13     7     8  ar
    14     7    12  ar
    15     8     9  ar
    16     9    10  ar
    17    10    11  ar
    18    11    12  ar
    19    12    13   1
    20    13    14   1
    21    14    15   1
    22    15    16   1
    23    16    17   1
    24    17    18   1
    25    18    19   2
    26    19    20   1
    27    20    21   1
    28    21    22   1
    29    22    23   1
    30    23    24   1
    31    24    25   1
    32     1    26   1
    33     2    27   1
    34     2    28   1
    35     3    29   1
    36     4    30   1
    37     5    31   1
    38     8    32   1
    39     9    33   1
    40    10    34   1
    41    11    35   1
    42    14    36   1
    43    14    37   1
    44    15    38   1
    45    15    39   1
    46    16    40   1
    47    17    41   1
    48    17    42   1
    49    19    43   1
    50    20    44   1
    51    20    45   1
    52    22    46   1
    53    23    47   1
    54    23    48   1
    55    24    49   1
    56    25    50   1
@<TRIPOS>SUBSTRUCTURE
     1  SY9      1

