@<TRIPOS>MOLECULE
2y5h_ligand_006
    60    64
SMALL
GAST_HUCK
****
This file was generated by PARSER (from files_GN.cpp)

@<TRIPOS>ATOM
      1 CL1        -8.8970   14.8363   13.6889 Cl          1 Y5H      -0.0522
      2 C25        -7.2999   14.5011   14.1144 C.2         1 Y5H       0.0990
      3 C24        -6.2208   14.3160   13.2471 C.2         1 Y5H      -0.0555
      4 C22        -5.0036   14.0381   13.8906 C.2         1 Y5H      -0.0588
      5 S1         -6.7101   14.3160   15.7165 S.3         1 Y5H      -0.0195
      6 C20        -5.0718   14.0043   15.2906 C.2         1 Y5H       0.0881
      7 C17        -4.0373   13.7147   16.1893 C.2         1 Y5H       0.1971
      8 N16        -4.1592   13.6810   17.5276 N.2         1 Y5H      -0.3009
      9 O10        -2.7813   13.3565   15.8323 O.3         1 Y5H      -0.2447
     10 C9         -2.1233   13.0822   16.9762 C.2         1 Y5H       0.0987
     11 C4         -2.9891   13.2770   18.0506 C.2         1 Y5H       0.0610
     12 C1         -2.7304   13.0970   19.5047 C.3         1 Y5H       0.0342
     13 N3         -1.5363   12.2607   19.8190 N.4         1 Y5H       0.2526
     14 C7         -1.6897   11.7682   21.2020 C.3         1 Y5H       0.0038
     15 C14        -0.8994   12.7628   22.0781 C.3         1 Y5H      -0.0022
     16 C15         0.3070   13.1045   21.1930 C.3         1 Y5H      -0.0072
     17 C8         -0.1957   12.9033   19.7441 C.3         1 Y5H      -0.0298
     18 C5         -3.2096   11.6999   21.4897 C.3         1 Y5H       0.1231
     19 C2         -3.8866   12.4377   20.3193 C.3         1 Y5H       0.1287
     20 C6         -4.6477   11.3681   19.7105 C.2         1 Y5H       0.2198
     21 O13        -5.4617   11.5745   18.8185 O.2         1 Y5H      -0.3852
     22 C11        -3.7442   10.3643   21.3843 C.2         1 Y5H       0.2184
     23 O18        -3.5249    9.5142   22.2368 O.2         1 Y5H      -0.3853
     24 N12        -4.5199   10.2072   20.3286 N.am        1 Y5H      -0.1843
     25 C19        -5.2136    8.9894   19.9597 C.3         1 Y5H       0.0635
     26 C21        -4.8713    8.4594   18.5259 C.3         1 Y5H       0.0123
     27 C23        -6.1192    7.9703   17.7163 C.3         1 Y5H      -0.0286
     28 N29        -6.6428    6.5494   17.9090 N.4         1 Y5H       0.2369
     29 C32        -5.8083    5.5729   17.1162 C.3         1 Y5H      -0.0418
     30 C31        -8.0723    6.4809   17.4119 C.3         1 Y5H      -0.0418
     31 C30        -6.6451    6.1084   19.3527 C.3         1 Y5H      -0.0418
     32 H1         -6.3095   14.3708   12.2327 H           1 Y5H       0.0446
     33 H2         -4.1355   13.8766   13.3728 H           1 Y5H       0.0483
     34 H3         -1.1493   12.7785   17.0245 H           1 Y5H       0.0892
     35 H4         -2.5834   14.1026   19.9163 H           1 Y5H       0.1004
     36 H5         -1.5483   11.4532   19.1912 H           1 Y5H       0.2053
     37 H6         -1.2144   10.7812   21.2824 H           1 Y5H       0.0882
     38 H7         -0.6001   12.3124   23.0286 H           1 Y5H       0.0323
     39 H8         -1.4822   13.6676   22.2761 H           1 Y5H       0.0323
     40 H9          1.1261   12.4105   21.4051 H           1 Y5H       0.0319
     41 H10         0.6510   14.1283   21.3673 H           1 Y5H       0.0319
     42 H11        -0.2209   13.8573   19.2087 H           1 Y5H       0.0815
     43 H12         0.4790   12.2316   19.2045 H           1 Y5H       0.0815
     44 H13        -3.4771   12.1474   22.4533 H           1 Y5H       0.0632
     45 H14        -4.5836   13.1985   20.6868 H           1 Y5H       0.0648
     46 H15        -6.2836    9.1958   20.0505 H           1 Y5H       0.0578
     47 H16        -4.9934    8.1897   20.6723 H           1 Y5H       0.0578
     48 H17        -4.1213    7.6635   18.5939 H           1 Y5H       0.0340
     49 H18        -4.4007    9.2643   17.9532 H           1 Y5H       0.0340
     50 H19        -5.8692    8.1104   16.6582 H           1 Y5H       0.0816
     51 H20        -6.9195    8.6916   17.9030 H           1 Y5H       0.0816
     52 H21        -6.1777    4.5489   17.2216 H           1 Y5H       0.0778
     53 H22        -4.7647    5.5812   17.4419 H           1 Y5H       0.0778
     54 H23        -5.8193    5.8123   16.0506 H           1 Y5H       0.0778
     55 H24        -8.7265    7.1411   17.9894 H           1 Y5H       0.0778
     56 H25        -8.4886    5.4718   17.4903 H           1 Y5H       0.0778
     57 H26        -8.1435    6.7858   16.3634 H           1 Y5H       0.0778
     58 H27        -5.6299    6.0364   19.7476 H           1 Y5H       0.0778
     59 H28        -7.0992    5.1180   19.4759 H           1 Y5H       0.0778
     60 H29        -7.2062    6.8040   19.9832 H           1 Y5H       0.0778
@<TRIPOS>BOND
     1     1     2   1
     2     2     3   2
     3     2     5   1
     4     3     4   1
     5     4     6   2
     6     5     6   1
     7     6     7   1
     8     7     8   2
     9     7     9   1
    10     8    11   1
    11     9    10   1
    12    10    11   2
    13    11    12   1
    14    12    13   1
    15    12    19   1
    16    13    14   1
    17    13    17   1
    18    14    15   1
    19    14    18   1
    20    15    16   1
    21    16    17   1
    22    18    19   1
    23    18    22   1
    24    19    20   1
    25    20    21   2
    26    20    24  am
    27    22    23   2
    28    22    24  am
    29    24    25   1
    30    25    26   1
    31    26    27   1
    32    27    28   1
    33    28    29   1
    34    28    30   1
    35    28    31   1
    36     3    32   1
    37     4    33   1
    38    10    34   1
    39    12    35   1
    40    13    36   1
    41    14    37   1
    42    15    38   1
    43    15    39   1
    44    16    40   1
    45    16    41   1
    46    17    42   1
    47    17    43   1
    48    18    44   1
    49    19    45   1
    50    25    46   1
    51    25    47   1
    52    26    48   1
    53    26    49   1
    54    27    50   1
    55    27    51   1
    56    29    52   1
    57    29    53   1
    58    29    54   1
    59    30    55   1
    60    30    56   1
    61    30    57   1
    62    31    58   1
    63    31    59   1
    64    31    60   1
@<TRIPOS>SUBSTRUCTURE
     1  Y5H      1

