@<TRIPOS>MOLECULE
2y5h_ligand_025
    60    64
SMALL
GAST_HUCK
****
This file was generated by PARSER (from files_GN.cpp)

@<TRIPOS>ATOM
      1 CL1        -0.8585    8.6186   27.7621 Cl          1 Y5H      -0.0522
      2 C25        -1.8657    9.5688   26.8000 C.2         1 Y5H       0.0990
      3 C24        -3.1525   10.0059   27.1156 C.2         1 Y5H      -0.0555
      4 C22        -3.7555   10.7980   26.1207 C.2         1 Y5H      -0.0588
      5 S1         -1.4787   10.1878   25.2450 S.3         1 Y5H      -0.0195
      6 C20        -2.9647   11.0149   24.9857 C.2         1 Y5H       0.0881
      7 C17        -3.3050   11.7804   23.8649 C.2         1 Y5H       0.1971
      8 N16        -2.5088   12.0041   22.8055 N.2         1 Y5H      -0.3009
      9 O10        -4.4807   12.4269   23.7071 O.3         1 Y5H      -0.2447
     10 C9         -4.4124   13.0629   22.5202 C.2         1 Y5H       0.0987
     11 C4         -3.1697   12.8000   21.9492 C.2         1 Y5H       0.0610
     12 C1         -2.5969   13.2732   20.6571 C.3         1 Y5H       0.0342
     13 N3         -3.3853   14.3910   20.0587 N.4         1 Y5H       0.2526
     14 C7         -4.3365   13.8098   19.0915 C.3         1 Y5H       0.0038
     15 C14        -4.6452   14.9169   18.0510 C.3         1 Y5H      -0.0022
     16 C15        -3.7015   16.0781   18.4109 C.3         1 Y5H      -0.0072
     17 C8         -2.6410   15.4421   19.3227 C.3         1 Y5H      -0.0298
     18 C5         -3.6314   12.5392   18.5407 C.3         1 Y5H       0.1231
     19 C2         -2.5067   12.1946   19.5312 C.3         1 Y5H       0.1287
     20 C6         -2.7840   10.8052   19.8217 C.2         1 Y5H       0.2198
     21 O13        -2.0332   10.1294   20.5123 O.2         1 Y5H      -0.3852
     22 C11        -4.4342   11.3474   18.5454 C.2         1 Y5H       0.2184
     23 O18        -5.4898   11.2752   17.9254 O.2         1 Y5H      -0.3853
     24 N12        -3.8914   10.3657   19.2433 N.am        1 Y5H      -0.1843
     25 C19        -4.4596    9.0364   19.3567 C.3         1 Y5H       0.0635
     26 C21        -4.7922    8.3673   17.9761 C.3         1 Y5H       0.0123
     27 C23        -6.2876    7.9536   17.7526 C.3         1 Y5H      -0.0286
     28 N29        -6.7046    6.5026   17.9563 N.4         1 Y5H       0.2369
     29 C32        -5.8737    5.5607   17.1161 C.3         1 Y5H      -0.0418
     30 C31        -8.1476    6.3511   17.5272 C.3         1 Y5H      -0.0418
     31 C30        -6.5956    6.1092   19.4062 C.3         1 Y5H      -0.0418
     32 H1         -3.6185    9.7772   27.9968 H           1 Y5H       0.0446
     33 H2         -4.6946   11.1916   26.2274 H           1 Y5H       0.0483
     34 H3         -5.1612   13.6343   22.1263 H           1 Y5H       0.0892
     35 H4         -1.5907   13.6360   20.8958 H           1 Y5H       0.1004
     36 H5         -3.9143   14.8687   20.7937 H           1 Y5H       0.2053
     37 H6         -5.2564   13.5455   19.6254 H           1 Y5H       0.0882
     38 H7         -5.6886   15.2372   18.1237 H           1 Y5H       0.0323
     39 H8         -4.4664   14.5773   17.0277 H           1 Y5H       0.0323
     40 H9         -4.2494   16.8480   18.9610 H           1 Y5H       0.0319
     41 H10        -3.2505   16.5253   17.5221 H           1 Y5H       0.0319
     42 H11        -1.8345   15.0166   18.7159 H           1 Y5H       0.0815
     43 H12        -2.2198   16.1773   20.0126 H           1 Y5H       0.0815
     44 H13        -3.2130   12.6985   17.5417 H           1 Y5H       0.0632
     45 H14        -1.5354   12.2622   19.0338 H           1 Y5H       0.0648
     46 H15        -5.3527    9.1287   19.9779 H           1 Y5H       0.0578
     47 H16        -3.7797    8.3735   19.9038 H           1 Y5H       0.0578
     48 H17        -4.1462    7.4958   17.8430 H           1 Y5H       0.0340
     49 H18        -4.5182    9.0603   17.1751 H           1 Y5H       0.0340
     50 H19        -6.5338    8.2315   16.7212 H           1 Y5H       0.0816
     51 H20        -6.9082    8.6069   18.3767 H           1 Y5H       0.0816
     52 H21        -6.2903    4.5464   17.1088 H           1 Y5H       0.0778
     53 H22        -4.8516    5.4697   17.4893 H           1 Y5H       0.0778
     54 H23        -5.8195    5.9004   16.0764 H           1 Y5H       0.0778
     55 H24        -8.8136    6.9871   18.1197 H           1 Y5H       0.0778
     56 H25        -8.4999    5.3202   17.6394 H           1 Y5H       0.0778
     57 H26        -8.2814    6.6236   16.4768 H           1 Y5H       0.0778
     58 H27        -5.5681    6.2009   19.7657 H           1 Y5H       0.0778
     59 H28        -6.9029    5.0714   19.5715 H           1 Y5H       0.0778
     60 H29        -7.2244    6.7419   20.0378 H           1 Y5H       0.0778
@<TRIPOS>BOND
     1     1     2   1
     2     2     3   2
     3     2     5   1
     4     3     4   1
     5     4     6   2
     6     5     6   1
     7     6     7   1
     8     7     8   2
     9     7     9   1
    10     8    11   1
    11     9    10   1
    12    10    11   2
    13    11    12   1
    14    12    13   1
    15    12    19   1
    16    13    14   1
    17    13    17   1
    18    14    15   1
    19    14    18   1
    20    15    16   1
    21    16    17   1
    22    18    19   1
    23    18    22   1
    24    19    20   1
    25    20    21   2
    26    20    24  am
    27    22    23   2
    28    22    24  am
    29    24    25   1
    30    25    26   1
    31    26    27   1
    32    27    28   1
    33    28    29   1
    34    28    30   1
    35    28    31   1
    36     3    32   1
    37     4    33   1
    38    10    34   1
    39    12    35   1
    40    13    36   1
    41    14    37   1
    42    15    38   1
    43    15    39   1
    44    16    40   1
    45    16    41   1
    46    17    42   1
    47    17    43   1
    48    18    44   1
    49    19    45   1
    50    25    46   1
    51    25    47   1
    52    26    48   1
    53    26    49   1
    54    27    50   1
    55    27    51   1
    56    29    52   1
    57    29    53   1
    58    29    54   1
    59    30    55   1
    60    30    56   1
    61    30    57   1
    62    31    58   1
    63    31    59   1
    64    31    60   1
@<TRIPOS>SUBSTRUCTURE
     1  Y5H      1

