@<TRIPOS>MOLECULE
2y5h_ligand_059
    60    64
SMALL
GAST_HUCK
****
This file was generated by PARSER (from files_GN.cpp)

@<TRIPOS>ATOM
      1 CL1         3.6590   21.4192   18.6975 Cl          1 Y5H      -0.0522
      2 C25         3.3604   20.0928   19.6942 C.2         1 Y5H       0.0990
      3 C24         4.2257   19.5407   20.6416 C.2         1 Y5H      -0.0555
      4 C22         3.7097   18.4185   21.3128 C.2         1 Y5H      -0.0588
      5 S1          1.9310   19.1439   19.6865 S.3         1 Y5H      -0.0195
      6 C20         2.4274   18.0314   20.9021 C.2         1 Y5H       0.0881
      7 C17         1.6498   16.9674   21.3734 C.2         1 Y5H       0.1971
      8 N16         0.4741   16.5770   20.8517 N.2         1 Y5H      -0.3009
      9 O10         1.9361   16.2205   22.4640 O.3         1 Y5H      -0.2447
     10 C9          0.9108   15.3589   22.6175 C.2         1 Y5H       0.0987
     11 C4         -0.0085   15.5626   21.5899 C.2         1 Y5H       0.0610
     12 C1         -1.3425   14.9433   21.3660 C.3         1 Y5H       0.0342
     13 N3         -2.3656   15.5446   22.2639 N.4         1 Y5H       0.2526
     14 C7         -3.5093   14.6167   22.3131 C.3         1 Y5H       0.0038
     15 C14        -4.5056   15.1501   21.2646 C.3         1 Y5H      -0.0022
     16 C15        -4.3500   16.6729   21.3845 C.3         1 Y5H      -0.0072
     17 C8         -2.9023   16.8821   21.8779 C.3         1 Y5H      -0.0298
     18 C5         -2.9424   13.2002   22.0379 C.3         1 Y5H       0.1231
     19 C2         -1.5089   13.3981   21.5091 C.3         1 Y5H       0.1287
     20 C6         -0.7433   12.6538   22.4824 C.2         1 Y5H       0.2198
     21 O13         0.4500   12.4373   22.3002 O.2         1 Y5H      -0.3852
     22 C11        -2.7434   12.4027   23.2219 C.2         1 Y5H       0.2184
     23 O18        -3.7109   12.0173   23.8636 O.2         1 Y5H      -0.3853
     24 N12        -1.4724   12.0965   23.4390 N.am        1 Y5H      -0.1843
     25 C19        -0.9095   11.2203   24.4555 C.3         1 Y5H       0.0635
     26 C21        -1.8009   10.8184   25.6701 C.3         1 Y5H       0.0123
     27 C23        -1.1035    9.9857   26.7993 C.3         1 Y5H      -0.0286
     28 N29        -1.1871    8.4641   26.7984 N.4         1 Y5H       0.2369
     29 C32        -0.3582    7.9281   27.9425 C.3         1 Y5H      -0.0418
     30 C31        -0.6431    7.8932   25.5166 C.3         1 Y5H      -0.0418
     31 C30        -2.6063    7.9924   27.0100 C.3         1 Y5H      -0.0418
     32 H1          5.1582   19.9180   20.8220 H           1 Y5H       0.0446
     33 H2          4.2399   17.9263   22.0370 H           1 Y5H       0.0483
     34 H3          0.8309   14.6903   23.3843 H           1 Y5H       0.0892
     35 H4         -1.6232   15.1731   20.3312 H           1 Y5H       0.1004
     36 H5         -1.9615   15.5966   23.2014 H           1 Y5H       0.2053
     37 H6         -3.9778   14.6784   23.3024 H           1 Y5H       0.0882
     38 H7         -5.5272   14.8268   21.4759 H           1 Y5H       0.0323
     39 H8         -4.2250   14.8242   20.2596 H           1 Y5H       0.0323
     40 H9         -5.0624   17.0645   22.1171 H           1 Y5H       0.0319
     41 H10        -4.5227   17.1651   20.4247 H           1 Y5H       0.0319
     42 H11        -2.3074   17.3642   21.0966 H           1 Y5H       0.0815
     43 H12        -2.8976   17.5385   22.7514 H           1 Y5H       0.0815
     44 H13        -3.5622   12.6436   21.3263 H           1 Y5H       0.0632
     45 H14        -1.3884   12.9124   20.5355 H           1 Y5H       0.0648
     46 H15        -0.0130   11.6997   24.8603 H           1 Y5H       0.0578
     47 H16        -0.5849   10.3127   23.9433 H           1 Y5H       0.0578
     48 H17        -2.6551   10.2591   25.3016 H           1 Y5H       0.0340
     49 H18        -2.1778   11.7461   26.1117 H           1 Y5H       0.0340
     50 H19        -1.5272   10.3379   27.7468 H           1 Y5H       0.0816
     51 H20        -0.0521   10.2863   26.8132 H           1 Y5H       0.0816
     52 H21        -0.3595    6.8342   27.9691 H           1 Y5H       0.0778
     53 H22        -0.7404    8.2758   28.9048 H           1 Y5H       0.0778
     54 H23         0.6828    8.2507   27.8679 H           1 Y5H       0.0778
     55 H24        -1.2618    8.1783   24.6664 H           1 Y5H       0.0778
     56 H25        -0.6161    6.8006   25.5414 H           1 Y5H       0.0778
     57 H26         0.3743    8.2438   25.3248 H           1 Y5H       0.0778
     58 H27        -3.0213    8.3734   27.9468 H           1 Y5H       0.0778
     59 H28        -2.6667    6.9011   27.0445 H           1 Y5H       0.0778
     60 H29        -3.2655    8.3239   26.2127 H           1 Y5H       0.0778
@<TRIPOS>BOND
     1     1     2   1
     2     2     3   2
     3     2     5   1
     4     3     4   1
     5     4     6   2
     6     5     6   1
     7     6     7   1
     8     7     8   2
     9     7     9   1
    10     8    11   1
    11     9    10   1
    12    10    11   2
    13    11    12   1
    14    12    13   1
    15    12    19   1
    16    13    14   1
    17    13    17   1
    18    14    15   1
    19    14    18   1
    20    15    16   1
    21    16    17   1
    22    18    19   1
    23    18    22   1
    24    19    20   1
    25    20    21   2
    26    20    24  am
    27    22    23   2
    28    22    24  am
    29    24    25   1
    30    25    26   1
    31    26    27   1
    32    27    28   1
    33    28    29   1
    34    28    30   1
    35    28    31   1
    36     3    32   1
    37     4    33   1
    38    10    34   1
    39    12    35   1
    40    13    36   1
    41    14    37   1
    42    15    38   1
    43    15    39   1
    44    16    40   1
    45    16    41   1
    46    17    42   1
    47    17    43   1
    48    18    44   1
    49    19    45   1
    50    25    46   1
    51    25    47   1
    52    26    48   1
    53    26    49   1
    54    27    50   1
    55    27    51   1
    56    29    52   1
    57    29    53   1
    58    29    54   1
    59    30    55   1
    60    30    56   1
    61    30    57   1
    62    31    58   1
    63    31    59   1
    64    31    60   1
@<TRIPOS>SUBSTRUCTURE
     1  Y5H      1

