@<TRIPOS>MOLECULE
2y5h_ligand_065
    60    64
SMALL
GAST_HUCK
****
This file was generated by PARSER (from files_GN.cpp)

@<TRIPOS>ATOM
      1 CL1       -12.2159   14.8349   23.5471 Cl          1 Y5H      -0.0522
      2 C25       -10.8028   13.9679   23.2393 C.2         1 Y5H       0.0990
      3 C24       -10.6789   12.5845   23.0874 C.2         1 Y5H      -0.0555
      4 C22        -9.3635   12.1447   22.8440 C.2         1 Y5H      -0.0588
      5 S1         -9.2326   14.6510   23.0861 S.3         1 Y5H      -0.0195
      6 C20        -8.4048   13.1667   22.8132 C.2         1 Y5H       0.0881
      7 C17        -7.0339   13.0367   22.5768 C.2         1 Y5H       0.1971
      8 N16        -6.1273   14.0235   22.6908 N.2         1 Y5H      -0.3009
      9 O10        -6.4397   11.8978   22.1530 O.3         1 Y5H      -0.2447
     10 C9         -5.1281   12.1897   21.9988 C.2         1 Y5H       0.0987
     11 C4         -4.9286   13.5161   22.3632 C.2         1 Y5H       0.0610
     12 C1         -3.6694   14.2975   22.3264 C.3         1 Y5H       0.0342
     13 N3         -3.0488   14.2604   20.9726 N.4         1 Y5H       0.2526
     14 C7         -1.6522   14.6893   21.1344 C.3         1 Y5H       0.0038
     15 C14        -1.6645   16.2017   20.8104 C.3         1 Y5H      -0.0022
     16 C15        -2.7195   16.3161   19.6963 C.3         1 Y5H      -0.0072
     17 C8         -3.6595   15.1103   19.9140 C.3         1 Y5H      -0.0298
     18 C5         -1.2295   14.2963   22.5830 C.3         1 Y5H       0.1231
     19 C2         -2.5277   13.9142   23.3213 C.3         1 Y5H       0.1287
     20 C6         -2.3005   12.5212   23.6404 C.2         1 Y5H       0.2198
     21 O13        -3.1260   11.8537   24.2450 O.2         1 Y5H      -0.3852
     22 C11        -0.4643   13.0820   22.6704 C.2         1 Y5H       0.2184
     23 O18         0.6704   13.0167   22.2020 O.2         1 Y5H      -0.3853
     24 N12        -1.1176   12.0831   23.2380 N.am        1 Y5H      -0.1843
     25 C19        -0.6749   10.7024   23.2733 C.3         1 Y5H       0.0635
     26 C21        -0.2232   10.1501   24.6643 C.3         1 Y5H       0.0123
     27 C23        -1.2919    9.3535   25.4680 C.3         1 Y5H      -0.0286
     28 N29        -0.7857    8.3890   26.5420 N.4         1 Y5H       0.2369
     29 C32        -0.2242    7.1306   25.9342 C.3         1 Y5H      -0.0418
     30 C31        -1.9473    8.0065   27.4305 C.3         1 Y5H      -0.0418
     31 C30         0.2759    9.0232   27.4092 C.3         1 Y5H      -0.0418
     32 H1        -11.4731   11.9463   23.1500 H           1 Y5H       0.0446
     33 H2         -9.1362   11.1583   22.7040 H           1 Y5H       0.0483
     34 H3         -4.4245   11.5381   21.6586 H           1 Y5H       0.0892
     35 H4         -3.9290   15.3369   22.5622 H           1 Y5H       0.1004
     36 H5         -3.0478   13.2893   20.6499 H           1 Y5H       0.2053
     37 H6         -1.0354   14.1785   20.3836 H           1 Y5H       0.0882
     38 H7         -0.6886   16.5545   20.4729 H           1 Y5H       0.0323
     39 H8         -1.9760   16.7876   21.6801 H           1 Y5H       0.0323
     40 H9         -2.2368   16.2422   18.7181 H           1 Y5H       0.0319
     41 H10        -3.2586   17.2649   19.7504 H           1 Y5H       0.0319
     42 H11        -4.6657   15.4436   20.1754 H           1 Y5H       0.0815
     43 H12        -3.7287   14.5229   18.9964 H           1 Y5H       0.0815
     44 H13        -0.6952   15.1037   23.0906 H           1 Y5H       0.0632
     45 H14        -2.6369   14.4715   24.2581 H           1 Y5H       0.0648
     46 H15         0.1706   10.5736   22.5908 H           1 Y5H       0.0578
     47 H16        -1.4698   10.0777   22.8650 H           1 Y5H       0.0578
     48 H17         0.1304   10.9846   25.2696 H           1 Y5H       0.0340
     49 H18         0.6296    9.4931   24.4973 H           1 Y5H       0.0340
     50 H19        -1.9124    8.8000   24.7569 H           1 Y5H       0.0816
     51 H20        -1.9472   10.1012   25.9237 H           1 Y5H       0.0816
     52 H21         0.1868    6.4616   26.6971 H           1 Y5H       0.0778
     53 H22         0.5785    7.3330   25.2243 H           1 Y5H       0.0778
     54 H23        -0.9938    6.5723   25.4027 H           1 Y5H       0.0778
     55 H24        -2.3465    8.8774   27.9585 H           1 Y5H       0.0778
     56 H25        -1.6510    7.2729   28.1879 H           1 Y5H       0.0778
     57 H26        -2.7634    7.5681   26.8473 H           1 Y5H       0.0778
     58 H27         1.1834    9.2451   26.8434 H           1 Y5H       0.0778
     59 H28         0.5694    8.3656   28.2318 H           1 Y5H       0.0778
     60 H29        -0.0774    9.9563   27.8442 H           1 Y5H       0.0778
@<TRIPOS>BOND
     1     1     2   1
     2     2     3   2
     3     2     5   1
     4     3     4   1
     5     4     6   2
     6     5     6   1
     7     6     7   1
     8     7     8   2
     9     7     9   1
    10     8    11   1
    11     9    10   1
    12    10    11   2
    13    11    12   1
    14    12    13   1
    15    12    19   1
    16    13    14   1
    17    13    17   1
    18    14    15   1
    19    14    18   1
    20    15    16   1
    21    16    17   1
    22    18    19   1
    23    18    22   1
    24    19    20   1
    25    20    21   2
    26    20    24  am
    27    22    23   2
    28    22    24  am
    29    24    25   1
    30    25    26   1
    31    26    27   1
    32    27    28   1
    33    28    29   1
    34    28    30   1
    35    28    31   1
    36     3    32   1
    37     4    33   1
    38    10    34   1
    39    12    35   1
    40    13    36   1
    41    14    37   1
    42    15    38   1
    43    15    39   1
    44    16    40   1
    45    16    41   1
    46    17    42   1
    47    17    43   1
    48    18    44   1
    49    19    45   1
    50    25    46   1
    51    25    47   1
    52    26    48   1
    53    26    49   1
    54    27    50   1
    55    27    51   1
    56    29    52   1
    57    29    53   1
    58    29    54   1
    59    30    55   1
    60    30    56   1
    61    30    57   1
    62    31    58   1
    63    31    59   1
    64    31    60   1
@<TRIPOS>SUBSTRUCTURE
     1  Y5H      1

