@<TRIPOS>MOLECULE
2y5h_ligand_022
    60    64
SMALL
GAST_HUCK
****
This file was generated by PARSER (from files_GN.cpp)

@<TRIPOS>ATOM
      1 CL1       -10.9290   10.0620   22.1762 Cl          1 Y5H      -0.0522
      2 C25        -9.9137   11.2981   22.7179 C.2         1 Y5H       0.0990
      3 C24       -10.2851   12.4281   23.4511 C.2         1 Y5H      -0.0555
      4 C22        -9.2264   13.3084   23.7351 C.2         1 Y5H      -0.0588
      5 S1         -8.2255   11.4129   22.4191 S.3         1 Y5H      -0.0195
      6 C20        -7.9798   12.9042   23.2423 C.2         1 Y5H       0.0881
      7 C17        -6.7705   13.6072   23.3348 C.2         1 Y5H       0.1971
      8 N16        -5.5808   13.1657   22.8885 N.2         1 Y5H      -0.3009
      9 O10        -6.6530   14.8626   23.8217 O.3         1 Y5H      -0.2447
     10 C9         -5.3550   15.2044   23.6724 C.2         1 Y5H       0.0987
     11 C4         -4.6816   14.1413   23.0874 C.2         1 Y5H       0.0610
     12 C1         -3.2496   14.0888   22.6903 C.3         1 Y5H       0.0342
     13 N3         -3.1476   13.5598   21.3036 N.4         1 Y5H       0.2526
     14 C7         -2.9104   12.1019   21.3794 C.3         1 Y5H       0.0038
     15 C14        -2.1329   11.7242   20.0906 C.3         1 Y5H      -0.0022
     16 C15        -1.8758   13.0562   19.3622 C.3         1 Y5H      -0.0072
     17 C8         -2.0825   14.1252   20.4439 C.3         1 Y5H      -0.0298
     18 C5         -2.1694   11.8644   22.7281 C.3         1 Y5H       0.1231
     19 C2         -2.3243   13.1634   23.5338 C.3         1 Y5H       0.1287
     20 C6         -2.7967   12.6820   24.8081 C.2         1 Y5H       0.2198
     21 O13        -2.9624   13.4389   25.7594 O.2         1 Y5H      -0.3852
     22 C11        -2.7244   10.8811   23.6258 C.2         1 Y5H       0.2184
     23 O18        -2.8289    9.7096   23.2984 O.2         1 Y5H      -0.3853
     24 N12        -3.0274   11.3833   24.8141 N.am        1 Y5H      -0.1843
     25 C19        -3.5212   10.6326   25.9511 C.3         1 Y5H       0.0635
     26 C21        -2.3971   10.0070   26.8337 C.3         1 Y5H       0.0123
     27 C23        -2.0369    8.5344   26.4568 C.3         1 Y5H      -0.0286
     28 N29        -0.9386    7.8064   27.2256 N.4         1 Y5H       0.2369
     29 C32         0.2244    8.7173   27.5263 C.3         1 Y5H      -0.0418
     30 C31        -0.4275    6.6576   26.3817 C.3         1 Y5H      -0.0418
     31 C30        -1.4631    7.2331   28.5248 C.3         1 Y5H      -0.0418
     32 H1        -11.2482   12.6067   23.7411 H           1 Y5H       0.0446
     33 H2         -9.3665   14.1757   24.2569 H           1 Y5H       0.0483
     34 H3         -4.9418   16.0988   23.9336 H           1 Y5H       0.0892
     35 H4         -2.8631   15.1114   22.7397 H           1 Y5H       0.1004
     36 H5         -4.0361   13.7156   20.8179 H           1 Y5H       0.2053
     37 H6         -3.8809   11.5913   21.3795 H           1 Y5H       0.0882
     38 H7         -2.7298   11.0582   19.4585 H           1 Y5H       0.0323
     39 H8         -1.1868   11.2233   20.3115 H           1 Y5H       0.0323
     40 H9         -2.6055   13.1960   18.5591 H           1 Y5H       0.0319
     41 H10        -0.8672   13.1037   18.9428 H           1 Y5H       0.0319
     42 H11        -1.1514   14.2767   21.0012 H           1 Y5H       0.0815
     43 H12        -2.4010   15.0759   20.0084 H           1 Y5H       0.0815
     44 H13        -1.1080   11.6404   22.5786 H           1 Y5H       0.0632
     45 H14        -1.3437   13.6363   23.6597 H           1 Y5H       0.0648
     46 H15        -4.2138    9.8578   25.6115 H           1 Y5H       0.0578
     47 H16        -4.1160   11.2924   26.5848 H           1 Y5H       0.0578
     48 H17        -2.7080   10.0198   27.8810 H           1 Y5H       0.0340
     49 H18        -1.5145   10.6445   26.7430 H           1 Y5H       0.0340
     50 H19        -1.7916    8.5637   25.3946 H           1 Y5H       0.0816
     51 H20        -2.9612    7.9524   26.5292 H           1 Y5H       0.0816
     52 H21         1.0416    8.1878   28.0252 H           1 Y5H       0.0778
     53 H22        -0.0648    9.5210   28.1972 H           1 Y5H       0.0778
     54 H23         0.6183    9.1701   26.6109 H           1 Y5H       0.0778
     55 H24        -1.2252    5.9424   26.1600 H           1 Y5H       0.0778
     56 H25         0.3751    6.1056   26.8816 H           1 Y5H       0.0778
     57 H26        -0.0272    7.0071   25.4272 H           1 Y5H       0.0778
     58 H27        -1.7672    8.0225   29.2214 H           1 Y5H       0.0778
     59 H28        -0.7087    6.6197   29.0275 H           1 Y5H       0.0778
     60 H29        -2.3309    6.5925   28.3581 H           1 Y5H       0.0778
@<TRIPOS>BOND
     1     1     2   1
     2     2     3   2
     3     2     5   1
     4     3     4   1
     5     4     6   2
     6     5     6   1
     7     6     7   1
     8     7     8   2
     9     7     9   1
    10     8    11   1
    11     9    10   1
    12    10    11   2
    13    11    12   1
    14    12    13   1
    15    12    19   1
    16    13    14   1
    17    13    17   1
    18    14    15   1
    19    14    18   1
    20    15    16   1
    21    16    17   1
    22    18    19   1
    23    18    22   1
    24    19    20   1
    25    20    21   2
    26    20    24  am
    27    22    23   2
    28    22    24  am
    29    24    25   1
    30    25    26   1
    31    26    27   1
    32    27    28   1
    33    28    29   1
    34    28    30   1
    35    28    31   1
    36     3    32   1
    37     4    33   1
    38    10    34   1
    39    12    35   1
    40    13    36   1
    41    14    37   1
    42    15    38   1
    43    15    39   1
    44    16    40   1
    45    16    41   1
    46    17    42   1
    47    17    43   1
    48    18    44   1
    49    19    45   1
    50    25    46   1
    51    25    47   1
    52    26    48   1
    53    26    49   1
    54    27    50   1
    55    27    51   1
    56    29    52   1
    57    29    53   1
    58    29    54   1
    59    30    55   1
    60    30    56   1
    61    30    57   1
    62    31    58   1
    63    31    59   1
    64    31    60   1
@<TRIPOS>SUBSTRUCTURE
     1  Y5H      1

