@<TRIPOS>MOLECULE
2y5h_ligand_062
    60    64
SMALL
GAST_HUCK
****
This file was generated by PARSER (from files_GN.cpp)

@<TRIPOS>ATOM
      1 CL1        -9.0255   17.8689   17.7369 Cl          1 Y5H      -0.0522
      2 C25        -8.5033   16.6619   18.7928 C.2         1 Y5H       0.0990
      3 C24        -9.2966   15.6997   19.4223 C.2         1 Y5H      -0.0555
      4 C22        -8.5845   14.8069   20.2411 C.2         1 Y5H      -0.0588
      5 S1         -6.8777   16.3852   19.2772 S.3         1 Y5H      -0.0195
      6 C20        -7.2030   15.0328   20.2895 C.2         1 Y5H       0.0881
      7 C17        -6.2537   14.2858   20.9979 C.2         1 Y5H       0.1971
      8 N16        -4.9372   14.5548   21.0494 N.2         1 Y5H      -0.3009
      9 O10        -6.5254   13.1571   21.6920 O.3         1 Y5H      -0.2447
     10 C9         -5.3527   12.7153   22.1837 C.2         1 Y5H       0.0987
     11 C4         -4.3530   13.5985   21.7894 C.2         1 Y5H       0.0610
     12 C1         -2.8938   13.4882   22.0308 C.3         1 Y5H       0.0342
     13 N3         -2.3311   12.2988   21.3357 N.4         1 Y5H       0.2526
     14 C7         -1.0714   11.9503   22.0146 C.3         1 Y5H       0.0038
     15 C14         0.0421   12.5930   21.1621 C.3         1 Y5H      -0.0022
     16 C15        -0.4909   12.4298   19.7306 C.3         1 Y5H      -0.0072
     17 C8         -2.0286   12.4366   19.8829 C.3         1 Y5H      -0.0298
     18 C5         -1.1794   12.4708   23.4706 C.3         1 Y5H       0.1231
     19 C2         -2.4060   13.3954   23.5061 C.3         1 Y5H       0.1287
     20 C6         -3.2343   12.7422   24.4988 C.2         1 Y5H       0.2198
     21 O13        -4.2778   13.2487   24.8849 O.2         1 Y5H      -0.3852
     22 C11        -1.5199   11.4485   24.4228 C.2         1 Y5H       0.2184
     23 O18        -0.7444   10.5328   24.6279 O.2         1 Y5H      -0.3853
     24 N12        -2.7047   11.6316   24.9961 N.am        1 Y5H      -0.1843
     25 C19        -3.3830   10.7540   25.9425 C.3         1 Y5H       0.0635
     26 C21        -2.5080    9.9904   26.9824 C.3         1 Y5H       0.0123
     27 C23        -2.1299    8.5298   26.5603 C.3         1 Y5H      -0.0286
     28 N29        -0.9969    7.8118   27.2832 N.4         1 Y5H       0.2369
     29 C32        -1.4911    7.2367   28.5878 C.3         1 Y5H      -0.0418
     30 C31         0.1836    8.7061   27.5406 C.3         1 Y5H      -0.0418
     31 C30        -0.5186    6.6569   26.4192 C.3         1 Y5H      -0.0418
     32 H1        -10.3086   15.6461   19.2955 H           1 Y5H       0.0446
     33 H2         -9.0445   14.0535   20.7561 H           1 Y5H       0.0483
     34 H3         -5.2272   11.8680   22.7391 H           1 Y5H       0.0892
     35 H4         -2.4267   14.3903   21.6132 H           1 Y5H       0.1004
     36 H5         -2.9795   11.5187   21.4674 H           1 Y5H       0.2053
     37 H6         -0.9460   10.8608   21.9799 H           1 Y5H       0.0882
     38 H7          1.0016   12.0843   21.3064 H           1 Y5H       0.0323
     39 H8          0.1597   13.6567   21.3981 H           1 Y5H       0.0323
     40 H9         -0.1536   11.4733   19.3225 H           1 Y5H       0.0319
     41 H10        -0.1354   13.2376   19.0847 H           1 Y5H       0.0319
     42 H11        -2.4462   13.3519   19.4552 H           1 Y5H       0.0815
     43 H12        -2.4655   11.5901   19.3497 H           1 Y5H       0.0815
     44 H13        -0.2713   12.9933   23.7855 H           1 Y5H       0.0632
     45 H14        -2.1386   14.3895   23.8752 H           1 Y5H       0.0648
     46 H15        -3.9864   10.0396   25.3733 H           1 Y5H       0.0578
     47 H16        -4.0995   11.3471   26.5201 H           1 Y5H       0.0578
     48 H17        -3.0721    9.9260   27.9213 H           1 Y5H       0.0340
     49 H18        -1.6316   10.5896   27.1726 H           1 Y5H       0.0340
     50 H19        -1.9100    8.5492   25.4914 H           1 Y5H       0.0816
     51 H20        -3.0470    7.9346   26.6442 H           1 Y5H       0.0816
     52 H21        -0.6953    6.7118   29.1221 H           1 Y5H       0.0778
     53 H22        -2.3028    6.5218   28.4289 H           1 Y5H       0.0778
     54 H23        -1.8687    8.0221   29.2469 H           1 Y5H       0.0778
     55 H24         0.5185    9.2054   26.6283 H           1 Y5H       0.0778
     56 H25         1.0337    8.1489   27.9420 H           1 Y5H       0.0778
     57 H26        -0.0445    9.4761   28.2738 H           1 Y5H       0.0778
     58 H27        -1.3282    5.9632   26.1926 H           1 Y5H       0.0778
     59 H28         0.2724    6.0861   26.9147 H           1 Y5H       0.0778
     60 H29        -0.1145    7.0141   25.4665 H           1 Y5H       0.0778
@<TRIPOS>BOND
     1     1     2   1
     2     2     3   2
     3     2     5   1
     4     3     4   1
     5     4     6   2
     6     5     6   1
     7     6     7   1
     8     7     8   2
     9     7     9   1
    10     8    11   1
    11     9    10   1
    12    10    11   2
    13    11    12   1
    14    12    13   1
    15    12    19   1
    16    13    14   1
    17    13    17   1
    18    14    15   1
    19    14    18   1
    20    15    16   1
    21    16    17   1
    22    18    19   1
    23    18    22   1
    24    19    20   1
    25    20    21   2
    26    20    24  am
    27    22    23   2
    28    22    24  am
    29    24    25   1
    30    25    26   1
    31    26    27   1
    32    27    28   1
    33    28    29   1
    34    28    30   1
    35    28    31   1
    36     3    32   1
    37     4    33   1
    38    10    34   1
    39    12    35   1
    40    13    36   1
    41    14    37   1
    42    15    38   1
    43    15    39   1
    44    16    40   1
    45    16    41   1
    46    17    42   1
    47    17    43   1
    48    18    44   1
    49    19    45   1
    50    25    46   1
    51    25    47   1
    52    26    48   1
    53    26    49   1
    54    27    50   1
    55    27    51   1
    56    29    52   1
    57    29    53   1
    58    29    54   1
    59    30    55   1
    60    30    56   1
    61    30    57   1
    62    31    58   1
    63    31    59   1
    64    31    60   1
@<TRIPOS>SUBSTRUCTURE
     1  Y5H      1

