@<TRIPOS>MOLECULE
2y5h_ligand_011
    60    64
SMALL
GAST_HUCK
****
This file was generated by PARSER (from files_GN.cpp)

@<TRIPOS>ATOM
      1 CL1         2.8681   15.7440   22.4933 Cl          1 Y5H      -0.0522
      2 C25         1.2428   15.3309   22.3100 C.2         1 Y5H       0.0990
      3 C24         0.2336   16.1298   21.7701 C.2         1 Y5H      -0.0555
      4 C22        -1.0401   15.5366   21.7762 C.2         1 Y5H      -0.0588
      5 S1          0.5236   13.8477   22.7932 S.3         1 Y5H      -0.0195
      6 C20        -1.0814   14.2441   22.3163 C.2         1 Y5H       0.0881
      7 C17        -2.2014   13.4149   22.4594 C.2         1 Y5H       0.1971
      8 N16        -3.4443   13.7224   22.0492 N.2         1 Y5H      -0.3009
      9 O10        -2.1889   12.1859   23.0268 O.3         1 Y5H      -0.2447
     10 C9         -3.4543   11.7233   22.9688 C.2         1 Y5H       0.0987
     11 C4         -4.2424   12.6855   22.3448 C.2         1 Y5H       0.0610
     12 C1         -5.6915   12.6279   22.0363 C.3         1 Y5H       0.0342
     13 N3         -6.5167   12.2172   23.2068 N.4         1 Y5H       0.2526
     14 C7         -7.8180   11.7755   22.6704 C.3         1 Y5H       0.0038
     15 C14        -8.7284   13.0191   22.7657 C.3         1 Y5H      -0.0022
     16 C15        -8.2604   13.6986   24.0630 C.3         1 Y5H      -0.0072
     17 C8         -6.7857   13.2667   24.2295 C.3         1 Y5H      -0.0298
     18 C5         -7.5473   11.2351   21.2381 C.3         1 Y5H       0.1231
     19 C2         -6.1211   11.6898   20.8746 C.3         1 Y5H       0.1287
     20 C6         -5.4318   10.4321   20.7148 C.2         1 Y5H       0.2198
     21 O13        -4.2545   10.3858   20.3823 O.2         1 Y5H      -0.3852
     22 C11        -7.4405    9.7985   21.1603 C.2         1 Y5H       0.2184
     23 O18        -8.4111    9.0751   21.3439 O.2         1 Y5H      -0.3853
     24 N12        -6.2190    9.3830   20.8711 N.am        1 Y5H      -0.1843
     25 C19        -5.7988    8.0014   20.7688 C.3         1 Y5H       0.0635
     26 C21        -5.1279    7.6115   19.4176 C.3         1 Y5H       0.0123
     27 C23        -6.0735    7.6445   18.1691 C.3         1 Y5H      -0.0286
     28 N29        -6.8264    6.3843   17.7656 N.4         1 Y5H       0.2369
     29 C32        -7.3900    5.6639   18.9644 C.3         1 Y5H      -0.0418
     30 C31        -5.9315    5.4453   16.9922 C.3         1 Y5H      -0.0418
     31 C30        -7.9783    6.7765   16.8657 C.3         1 Y5H      -0.0418
     32 H1          0.4021   17.0730   21.4150 H           1 Y5H       0.0446
     33 H2         -1.8676   16.0190   21.4192 H           1 Y5H       0.0483
     34 H3         -3.7685   10.8141   23.3136 H           1 Y5H       0.0892
     35 H4         -5.9909   13.6385   21.7307 H           1 Y5H       0.1004
     36 H5         -6.0828   11.4010   23.6519 H           1 Y5H       0.2053
     37 H6         -8.2270   10.9940   23.3226 H           1 Y5H       0.0882
     38 H7         -9.7855   12.7447   22.8085 H           1 Y5H       0.0323
     39 H8         -8.5669   13.6898   21.9167 H           1 Y5H       0.0323
     40 H9         -8.8572   13.3421   24.9083 H           1 Y5H       0.0319
     41 H10        -8.3585   14.7856   23.9964 H           1 Y5H       0.0319
     42 H11        -6.1210   14.1296   24.1266 H           1 Y5H       0.0815
     43 H12        -6.6243   12.8457   25.2242 H           1 Y5H       0.0815
     44 H13        -8.2841   11.5953   20.5131 H           1 Y5H       0.0632
     45 H14        -6.1081   12.2255   19.9188 H           1 Y5H       0.0648
     46 H15        -6.6421    7.3299   20.9332 H           1 Y5H       0.0578
     47 H16        -5.0937    7.8066   21.5800 H           1 Y5H       0.0578
     48 H17        -4.6834    6.6228   19.5336 H           1 Y5H       0.0340
     49 H18        -4.2898    8.2898   19.2400 H           1 Y5H       0.0340
     50 H19        -5.4600    7.9642   17.3182 H           1 Y5H       0.0816
     51 H20        -6.7880    8.4594   18.3203 H           1 Y5H       0.0816
     52 H21        -7.9965    4.8058   18.6632 H           1 Y5H       0.0778
     53 H22        -8.0252    6.3244   19.5615 H           1 Y5H       0.0778
     54 H23        -6.6000    5.2783   19.6136 H           1 Y5H       0.0778
     55 H24        -5.5192    5.9264   16.1001 H           1 Y5H       0.0778
     56 H25        -6.4816    4.5601   16.6617 H           1 Y5H       0.0778
     57 H26        -5.0902    5.0921   17.5908 H           1 Y5H       0.0778
     58 H27        -8.6836    7.4341   17.3826 H           1 Y5H       0.0778
     59 H28        -8.5422    5.9034   16.5243 H           1 Y5H       0.0778
     60 H29        -7.6267    7.3067   15.9758 H           1 Y5H       0.0778
@<TRIPOS>BOND
     1     1     2   1
     2     2     3   2
     3     2     5   1
     4     3     4   1
     5     4     6   2
     6     5     6   1
     7     6     7   1
     8     7     8   2
     9     7     9   1
    10     8    11   1
    11     9    10   1
    12    10    11   2
    13    11    12   1
    14    12    13   1
    15    12    19   1
    16    13    14   1
    17    13    17   1
    18    14    15   1
    19    14    18   1
    20    15    16   1
    21    16    17   1
    22    18    19   1
    23    18    22   1
    24    19    20   1
    25    20    21   2
    26    20    24  am
    27    22    23   2
    28    22    24  am
    29    24    25   1
    30    25    26   1
    31    26    27   1
    32    27    28   1
    33    28    29   1
    34    28    30   1
    35    28    31   1
    36     3    32   1
    37     4    33   1
    38    10    34   1
    39    12    35   1
    40    13    36   1
    41    14    37   1
    42    15    38   1
    43    15    39   1
    44    16    40   1
    45    16    41   1
    46    17    42   1
    47    17    43   1
    48    18    44   1
    49    19    45   1
    50    25    46   1
    51    25    47   1
    52    26    48   1
    53    26    49   1
    54    27    50   1
    55    27    51   1
    56    29    52   1
    57    29    53   1
    58    29    54   1
    59    30    55   1
    60    30    56   1
    61    30    57   1
    62    31    58   1
    63    31    59   1
    64    31    60   1
@<TRIPOS>SUBSTRUCTURE
     1  Y5H      1

