@<TRIPOS>MOLECULE
2y5h_ligand_027
    60    64
SMALL
GAST_HUCK
****
This file was generated by PARSER (from files_GN.cpp)

@<TRIPOS>ATOM
      1 CL1        -7.7075    6.5671   18.2098 Cl          1 Y5H      -0.0522
      2 C25        -6.6975    7.3721   19.2969 C.2         1 Y5H       0.0990
      3 C24        -6.9268    7.5567   20.6613 C.2         1 Y5H      -0.0555
      4 C22        -5.9037    8.2488   21.3308 C.2         1 Y5H      -0.0588
      5 S1         -5.1838    8.0973   18.9256 S.3         1 Y5H      -0.0195
      6 C20        -4.8323    8.6431   20.5197 C.2         1 Y5H       0.0881
      7 C17        -3.6759    9.3308   20.9096 C.2         1 Y5H       0.1971
      8 N16        -3.3918    9.7243   22.1638 N.2         1 Y5H      -0.3009
      9 O10        -2.6716    9.6809   20.0734 O.3         1 Y5H      -0.2447
     10 C9         -1.7422   10.3041   20.8254 C.2         1 Y5H       0.0987
     11 C4         -2.1963   10.3355   22.1397 C.2         1 Y5H       0.0610
     12 C1         -1.5163   10.9471   23.3097 C.3         1 Y5H       0.0342
     13 N3         -1.5789   10.0036   24.4602 N.4         1 Y5H       0.2526
     14 C7         -2.6521   10.4427   25.3768 C.3         1 Y5H       0.0038
     15 C14        -2.2343    9.9901   26.8002 C.3         1 Y5H      -0.0022
     16 C15        -0.9052    9.2438   26.5965 C.3         1 Y5H      -0.0072
     17 C8         -0.3615    9.8238   25.2827 C.3         1 Y5H      -0.0298
     18 C5         -2.8016   11.9739   25.1627 C.3         1 Y5H       0.1231
     19 C2         -2.1300   12.2890   23.8171 C.3         1 Y5H       0.1287
     20 C6         -3.2109   12.9069   23.0829 C.2         1 Y5H       0.2198
     21 O13        -3.0508   13.3320   21.9456 O.2         1 Y5H      -0.3852
     22 C11        -4.1504   12.4359   24.9651 C.2         1 Y5H       0.2184
     23 O18        -4.9928   12.3460   25.8495 O.2         1 Y5H      -0.3853
     24 N12        -4.3369   12.9785   23.7748 N.am        1 Y5H      -0.1843
     25 C19        -5.5712   13.5768   23.3111 C.3         1 Y5H       0.0635
     26 C21        -5.4565   15.1004   23.0108 C.3         1 Y5H       0.0123
     27 C23        -4.8799   16.0060   24.1542 C.3         1 Y5H      -0.0286
     28 N29        -5.8006   16.7285   25.1299 N.4         1 Y5H       0.2369
     29 C32        -4.9470   17.5381   26.0857 C.3         1 Y5H      -0.0418
     30 C31        -6.6313   15.7667   25.9394 C.3         1 Y5H      -0.0418
     31 C30        -6.7216   17.6798   24.4051 C.3         1 Y5H      -0.0418
     32 H1         -7.7603    7.2054   21.1376 H           1 Y5H       0.0446
     33 H2         -5.9405    8.4378   22.3324 H           1 Y5H       0.0483
     34 H3         -0.8649   10.6950   20.4773 H           1 Y5H       0.0892
     35 H4         -0.4724   11.1256   23.0261 H           1 Y5H       0.1004
     36 H5         -1.8292    9.0751   24.1115 H           1 Y5H       0.2053
     37 H6         -3.5720    9.9231   25.0884 H           1 Y5H       0.0882
     38 H7         -2.9867    9.3321   27.2438 H           1 Y5H       0.0323
     39 H8         -2.0825   10.8391   27.4710 H           1 Y5H       0.0323
     40 H9         -1.0925    8.1716   26.4795 H           1 Y5H       0.0319
     41 H10        -0.2135    9.4017   27.4284 H           1 Y5H       0.0319
     42 H11         0.1480   10.7751   25.4719 H           1 Y5H       0.0815
     43 H12         0.3333    9.1292   24.8033 H           1 Y5H       0.0815
     44 H13        -2.3288   12.5556   25.9588 H           1 Y5H       0.0632
     45 H14        -1.3329   13.0274   23.9593 H           1 Y5H       0.0648
     46 H15        -6.3790   13.4265   24.0311 H           1 Y5H       0.0578
     47 H16        -5.8822   13.0582   22.3988 H           1 Y5H       0.0578
     48 H17        -6.4324   15.4620   22.6906 H           1 Y5H       0.0340
     49 H18        -4.8063   15.2030   22.1380 H           1 Y5H       0.0340
     50 H19        -4.2697   16.7658   23.6525 H           1 Y5H       0.0816
     51 H20        -4.1653   15.4024   24.7210 H           1 Y5H       0.0816
     52 H21        -5.5544   18.1022   26.7995 H           1 Y5H       0.0778
     53 H22        -4.3232   18.2614   25.5516 H           1 Y5H       0.0778
     54 H23        -4.2771   16.8976   26.6678 H           1 Y5H       0.0778
     55 H24        -7.3119   15.1950   25.3058 H           1 Y5H       0.0778
     56 H25        -7.2479   16.2946   26.6744 H           1 Y5H       0.0778
     57 H26        -6.0051   15.0582   26.4876 H           1 Y5H       0.0778
     58 H27        -6.1600   18.3823   23.7846 H           1 Y5H       0.0778
     59 H28        -7.3228   18.2672   25.1043 H           1 Y5H       0.0778
     60 H29        -7.4224   17.1526   23.7568 H           1 Y5H       0.0778
@<TRIPOS>BOND
     1     1     2   1
     2     2     3   2
     3     2     5   1
     4     3     4   1
     5     4     6   2
     6     5     6   1
     7     6     7   1
     8     7     8   2
     9     7     9   1
    10     8    11   1
    11     9    10   1
    12    10    11   2
    13    11    12   1
    14    12    13   1
    15    12    19   1
    16    13    14   1
    17    13    17   1
    18    14    15   1
    19    14    18   1
    20    15    16   1
    21    16    17   1
    22    18    19   1
    23    18    22   1
    24    19    20   1
    25    20    21   2
    26    20    24  am
    27    22    23   2
    28    22    24  am
    29    24    25   1
    30    25    26   1
    31    26    27   1
    32    27    28   1
    33    28    29   1
    34    28    30   1
    35    28    31   1
    36     3    32   1
    37     4    33   1
    38    10    34   1
    39    12    35   1
    40    13    36   1
    41    14    37   1
    42    15    38   1
    43    15    39   1
    44    16    40   1
    45    16    41   1
    46    17    42   1
    47    17    43   1
    48    18    44   1
    49    19    45   1
    50    25    46   1
    51    25    47   1
    52    26    48   1
    53    26    49   1
    54    27    50   1
    55    27    51   1
    56    29    52   1
    57    29    53   1
    58    29    54   1
    59    30    55   1
    60    30    56   1
    61    30    57   1
    62    31    58   1
    63    31    59   1
    64    31    60   1
@<TRIPOS>SUBSTRUCTURE
     1  Y5H      1

