@<TRIPOS>MOLECULE
2y5h_ligand_075
    60    64
SMALL
GAST_HUCK
****
This file was generated by PARSER (from files_GN.cpp)

@<TRIPOS>ATOM
      1 CL1        -0.2172    8.9715   27.2491 Cl          1 Y5H      -0.0522
      2 C25        -0.3961    9.4183   25.6303 C.2         1 Y5H       0.0990
      3 C24         0.4965    9.1565   24.5868 C.2         1 Y5H      -0.0555
      4 C22         0.1060    9.6862   23.3444 C.2         1 Y5H      -0.0588
      5 S1         -1.7042   10.3171   24.9729 S.3         1 Y5H      -0.0195
      6 C20        -1.1139   10.3742   23.3552 C.2         1 Y5H       0.0881
      7 C17        -1.7110   11.0458   22.2786 C.2         1 Y5H       0.1971
      8 N16        -2.9278   11.6171   22.2969 N.2         1 Y5H      -0.3009
      9 O10        -1.1108   11.2787   21.0885 O.3         1 Y5H      -0.2447
     10 C9         -1.9713   12.0180   20.3619 C.2         1 Y5H       0.0987
     11 C4         -3.1216   12.2210   21.1146 C.2         1 Y5H       0.0610
     12 C1         -4.3023   13.0301   20.7271 C.3         1 Y5H       0.0342
     13 N3         -5.3976   12.9746   21.7370 N.4         1 Y5H       0.2526
     14 C7         -6.6380   13.3891   21.0589 C.3         1 Y5H       0.0038
     15 C14        -6.7665   14.8992   21.3556 C.3         1 Y5H      -0.0022
     16 C15        -6.2205   15.0266   22.7855 C.3         1 Y5H      -0.0072
     17 C8         -5.2589   13.8283   22.9493 C.3         1 Y5H      -0.0298
     18 C5         -6.4737   13.0129   19.5630 C.3         1 Y5H       0.1231
     19 C2         -4.9837   12.6829   19.3692 C.3         1 Y5H       0.1287
     20 C6         -5.0349   11.3058   18.9347 C.2         1 Y5H       0.2198
     21 O13        -4.0131   10.7198   18.6092 O.2         1 Y5H      -0.3852
     22 C11        -7.1165   11.7820   19.1830 C.2         1 Y5H       0.2184
     23 O18        -8.3352   11.6764   19.1804 O.2         1 Y5H      -0.3853
     24 N12        -6.2658   10.8394   18.8079 N.am        1 Y5H      -0.1843
     25 C19        -6.7293    9.5470   18.3282 C.3         1 Y5H       0.0635
     26 C21        -5.6961    8.5267   17.7576 C.3         1 Y5H       0.0123
     27 C23        -6.3196    7.2118   17.1854 C.3         1 Y5H      -0.0286
     28 N29        -6.4288    5.9712   18.0595 N.4         1 Y5H       0.2369
     29 C32        -7.1938    6.2374   19.3302 C.3         1 Y5H      -0.0418
     30 C31        -5.0642    5.4244   18.4028 C.3         1 Y5H      -0.0418
     31 C30        -7.1780    4.9058   17.2798 C.3         1 Y5H      -0.0418
     32 H1          1.3680    8.6393   24.7168 H           1 Y5H       0.0446
     33 H2          0.6777    9.5813   22.5046 H           1 Y5H       0.0483
     34 H3         -1.8042   12.3624   19.4127 H           1 Y5H       0.0892
     35 H4         -3.9460   14.0655   20.6436 H           1 Y5H       0.1004
     36 H5         -5.5050   12.0006   22.0295 H           1 Y5H       0.2053
     37 H6         -7.4864   12.8664   21.5158 H           1 Y5H       0.0882
     38 H7         -7.8037   15.2359   21.2843 H           1 Y5H       0.0323
     39 H8         -6.1488   15.4880   20.6719 H           1 Y5H       0.0323
     40 H9         -7.0410   14.9546   23.5065 H           1 Y5H       0.0319
     41 H10        -5.7076   15.9805   22.9283 H           1 Y5H       0.0319
     42 H11        -4.2318   14.1753   23.0991 H           1 Y5H       0.0815
     43 H12        -5.5438   13.2394   23.8258 H           1 Y5H       0.0815
     44 H13        -6.8002   13.8171   18.8952 H           1 Y5H       0.0632
     45 H14        -4.5554   13.2905   18.5625 H           1 Y5H       0.0648
     46 H15        -7.4505    9.7382   17.5279 H           1 Y5H       0.0578
     47 H16        -7.2683    9.0691   19.1437 H           1 Y5H       0.0578
     48 H17        -4.9492    8.3037   18.5233 H           1 Y5H       0.0340
     49 H18        -5.1708    9.0373   16.9367 H           1 Y5H       0.0340
     50 H19        -5.7277    6.9497   16.3009 H           1 Y5H       0.0816
     51 H20        -7.3082    7.4702   16.7994 H           1 Y5H       0.0816
     52 H21        -7.3887    5.3170   19.8859 H           1 Y5H       0.0778
     53 H22        -8.1636    6.7010   19.1176 H           1 Y5H       0.0778
     54 H23        -6.6405    6.9029   19.9970 H           1 Y5H       0.0778
     55 H24        -4.4790    5.2287   17.4987 H           1 Y5H       0.0778
     56 H25        -5.1357    4.4856   18.9567 H           1 Y5H       0.0778
     57 H26        -4.4892    6.1160   19.0201 H           1 Y5H       0.0778
     58 H27        -8.1941    5.2320   17.0322 H           1 Y5H       0.0778
     59 H28        -7.2660    3.9717   17.8435 H           1 Y5H       0.0778
     60 H29        -6.6717    4.6727   16.3404 H           1 Y5H       0.0778
@<TRIPOS>BOND
     1     1     2   1
     2     2     3   2
     3     2     5   1
     4     3     4   1
     5     4     6   2
     6     5     6   1
     7     6     7   1
     8     7     8   2
     9     7     9   1
    10     8    11   1
    11     9    10   1
    12    10    11   2
    13    11    12   1
    14    12    13   1
    15    12    19   1
    16    13    14   1
    17    13    17   1
    18    14    15   1
    19    14    18   1
    20    15    16   1
    21    16    17   1
    22    18    19   1
    23    18    22   1
    24    19    20   1
    25    20    21   2
    26    20    24  am
    27    22    23   2
    28    22    24  am
    29    24    25   1
    30    25    26   1
    31    26    27   1
    32    27    28   1
    33    28    29   1
    34    28    30   1
    35    28    31   1
    36     3    32   1
    37     4    33   1
    38    10    34   1
    39    12    35   1
    40    13    36   1
    41    14    37   1
    42    15    38   1
    43    15    39   1
    44    16    40   1
    45    16    41   1
    46    17    42   1
    47    17    43   1
    48    18    44   1
    49    19    45   1
    50    25    46   1
    51    25    47   1
    52    26    48   1
    53    26    49   1
    54    27    50   1
    55    27    51   1
    56    29    52   1
    57    29    53   1
    58    29    54   1
    59    30    55   1
    60    30    56   1
    61    30    57   1
    62    31    58   1
    63    31    59   1
    64    31    60   1
@<TRIPOS>SUBSTRUCTURE
     1  Y5H      1

