@<TRIPOS>MOLECULE
2y5h_ligand_017
    60    64
SMALL
GAST_HUCK
****
This file was generated by PARSER (from files_GN.cpp)

@<TRIPOS>ATOM
      1 CL1       -12.1943   14.3573   20.8980 Cl          1 Y5H      -0.0522
      2 C25       -10.8999   13.7307   21.7795 C.2         1 Y5H       0.0990
      3 C24       -10.9519   13.1460   23.0463 C.2         1 Y5H      -0.0555
      4 C22        -9.7071   12.7124   23.5356 C.2         1 Y5H      -0.0588
      5 S1         -9.2608   13.7016   21.2681 S.3         1 Y5H      -0.0195
      6 C20        -8.6272   12.9349   22.6735 C.2         1 Y5H       0.0881
      7 C17        -7.2764   12.6286   22.8963 C.2         1 Y5H       0.1971
      8 N16        -6.2680   12.9727   22.0787 N.2         1 Y5H      -0.3009
      9 O10        -6.7858   11.9790   23.9754 O.3         1 Y5H      -0.2447
     10 C9         -5.4490   11.9142   23.8170 C.2         1 Y5H       0.0987
     11 C4         -5.1166   12.5390   22.6192 C.2         1 Y5H       0.0610
     12 C1         -3.7464   12.7400   22.0639 C.3         1 Y5H       0.0342
     13 N3         -3.7489   13.8689   21.0898 N.4         1 Y5H       0.2526
     14 C7         -4.0227   13.3102   19.7520 C.3         1 Y5H       0.0038
     15 C14        -3.3606   14.2659   18.7263 C.3         1 Y5H      -0.0022
     16 C15        -2.6301   15.3227   19.5738 C.3         1 Y5H      -0.0072
     17 C8         -2.5155   14.6820   20.9641 C.3         1 Y5H      -0.0298
     18 C5         -3.4646   11.8572   19.7859 C.3         1 Y5H       0.1231
     19 C2         -3.1550   11.5405   21.2576 C.3         1 Y5H       0.1287
     20 C6         -3.7268   10.2277   21.4149 C.2         1 Y5H       0.2198
     21 O13        -3.5777    9.5779   22.4418 O.2         1 Y5H      -0.3852
     22 C11        -4.3897   10.8093   19.4449 C.2         1 Y5H       0.2184
     23 O18        -4.9692   10.7869   18.3625 O.2         1 Y5H      -0.3853
     24 N12        -4.4519    9.8679   20.3698 N.am        1 Y5H      -0.1843
     25 C19        -5.2618    8.6750   20.2725 C.3         1 Y5H       0.0635
     26 C21        -5.0087    7.8302   18.9714 C.3         1 Y5H       0.0123
     27 C23        -6.2441    7.6597   18.0160 C.3         1 Y5H      -0.0286
     28 N29        -6.9023    6.2907   17.8889 N.4         1 Y5H       0.2369
     29 C32        -6.0218    5.3617   17.0858 C.3         1 Y5H      -0.0418
     30 C31        -8.2227    6.4402   17.1633 C.3         1 Y5H      -0.0418
     31 C30        -7.1898    5.6844   19.2399 C.3         1 Y5H      -0.0418
     32 H1        -11.8179   13.0470   23.5758 H           1 Y5H       0.0446
     33 H2         -9.6093   12.2767   24.4538 H           1 Y5H       0.0483
     34 H3         -4.7965   11.4843   24.4761 H           1 Y5H       0.0892
     35 H4         -3.0864   12.9764   22.9086 H           1 Y5H       0.1004
     36 H5         -4.5061   14.5118   21.3307 H           1 Y5H       0.2053
     37 H6         -5.1041   13.3078   19.5881 H           1 Y5H       0.0882
     38 H7         -4.1111   14.7455   18.0932 H           1 Y5H       0.0323
     39 H8         -2.6499   13.7499   18.0729 H           1 Y5H       0.0323
     40 H9         -3.2302   16.2342   19.6335 H           1 Y5H       0.0319
     41 H10        -1.6468   15.5703   19.1675 H           1 Y5H       0.0319
     42 H11        -1.6140   14.0630   21.0197 H           1 Y5H       0.0815
     43 H12        -2.4740   15.4398   21.7505 H           1 Y5H       0.0815
     44 H13        -2.5605   11.7402   19.1786 H           1 Y5H       0.0632
     45 H14        -2.0739   11.4841   21.4108 H           1 Y5H       0.0648
     46 H15        -6.3013    9.0089   20.3319 H           1 Y5H       0.0578
     47 H16        -5.1071    8.0222   21.1396 H           1 Y5H       0.0578
     48 H17        -4.6107    6.8585   19.2560 H           1 Y5H       0.0340
     49 H18        -4.2013    8.2823   18.3959 H           1 Y5H       0.0340
     50 H19        -5.9250    7.9764   17.0147 H           1 Y5H       0.0816
     51 H20        -6.9928    8.4044   18.3036 H           1 Y5H       0.0816
     52 H21        -6.5065    4.3945   16.9132 H           1 Y5H       0.0778
     53 H22        -5.0724    5.1650   17.5916 H           1 Y5H       0.0778
     54 H23        -5.7876    5.7863   16.1021 H           1 Y5H       0.0778
     55 H24        -8.9166    7.0740   17.7296 H           1 Y5H       0.0778
     56 H25        -8.7160    5.4735   17.0172 H           1 Y5H       0.0778
     57 H26        -8.0882    6.8946   16.1773 H           1 Y5H       0.0778
     58 H27        -6.2731    5.4342   19.7749 H           1 Y5H       0.0778
     59 H28        -7.7601    4.7566   19.1540 H           1 Y5H       0.0778
     60 H29        -7.7620    6.3739   19.8686 H           1 Y5H       0.0778
@<TRIPOS>BOND
     1     1     2   1
     2     2     3   2
     3     2     5   1
     4     3     4   1
     5     4     6   2
     6     5     6   1
     7     6     7   1
     8     7     8   2
     9     7     9   1
    10     8    11   1
    11     9    10   1
    12    10    11   2
    13    11    12   1
    14    12    13   1
    15    12    19   1
    16    13    14   1
    17    13    17   1
    18    14    15   1
    19    14    18   1
    20    15    16   1
    21    16    17   1
    22    18    19   1
    23    18    22   1
    24    19    20   1
    25    20    21   2
    26    20    24  am
    27    22    23   2
    28    22    24  am
    29    24    25   1
    30    25    26   1
    31    26    27   1
    32    27    28   1
    33    28    29   1
    34    28    30   1
    35    28    31   1
    36     3    32   1
    37     4    33   1
    38    10    34   1
    39    12    35   1
    40    13    36   1
    41    14    37   1
    42    15    38   1
    43    15    39   1
    44    16    40   1
    45    16    41   1
    46    17    42   1
    47    17    43   1
    48    18    44   1
    49    19    45   1
    50    25    46   1
    51    25    47   1
    52    26    48   1
    53    26    49   1
    54    27    50   1
    55    27    51   1
    56    29    52   1
    57    29    53   1
    58    29    54   1
    59    30    55   1
    60    30    56   1
    61    30    57   1
    62    31    58   1
    63    31    59   1
    64    31    60   1
@<TRIPOS>SUBSTRUCTURE
     1  Y5H      1

