@<TRIPOS>MOLECULE
2y5h_ligand_029
    60    64
SMALL
GAST_HUCK
****
This file was generated by PARSER (from files_GN.cpp)

@<TRIPOS>ATOM
      1 CL1        -9.4775   15.4327   23.7549 Cl          1 Y5H      -0.0522
      2 C25        -8.0418   14.7246   24.2903 C.2         1 Y5H       0.0990
      3 C24        -7.7000   14.4194   25.6099 C.2         1 Y5H      -0.0555
      4 C22        -6.4194   13.8600   25.7625 C.2         1 Y5H      -0.0588
      5 S1         -6.7114   14.2808   23.2976 S.3         1 Y5H      -0.0195
      6 C20        -5.7060   13.6984   24.5678 C.2         1 Y5H       0.0881
      7 C17        -4.4044   13.2005   24.4283 C.2         1 Y5H       0.1971
      8 N16        -3.7368   13.0840   23.2663 N.2         1 Y5H      -0.3009
      9 O10        -3.6196   12.8099   25.4598 O.3         1 Y5H      -0.2447
     10 C9         -2.4370   12.4488   24.9255 C.2         1 Y5H       0.0987
     11 C4         -2.5088   12.6198   23.5478 C.2         1 Y5H       0.0610
     12 C1         -1.4233   12.3728   22.5652 C.3         1 Y5H       0.0342
     13 N3         -1.3167   13.5396   21.6471 N.4         1 Y5H       0.2526
     14 C7         -1.9779   13.1997   20.3706 C.3         1 Y5H       0.0038
     15 C14        -1.2323   13.9796   19.2559 C.3         1 Y5H      -0.0022
     16 C15        -0.1908   14.8208   20.0103 C.3         1 Y5H      -0.0072
     17 C8          0.0352   14.0379   21.3118 C.3         1 Y5H      -0.0298
     18 C5         -1.9310   11.6509   20.2555 C.3         1 Y5H       0.1231
     19 C2         -1.6023   11.1171   21.6569 C.3         1 Y5H       0.1287
     20 C6         -2.7022   10.2076   21.8978 C.2         1 Y5H       0.2198
     21 O13        -2.7884    9.5711   22.9396 O.2         1 Y5H      -0.3852
     22 C11        -3.1950   11.0237   19.9666 C.2         1 Y5H       0.2184
     23 O18        -3.8113   11.2713   18.9384 O.2         1 Y5H      -0.3853
     24 N12        -3.5848   10.1849   20.9112 N.am        1 Y5H      -0.1843
     25 C19        -4.8047    9.4010   20.8834 C.3         1 Y5H       0.0635
     26 C21        -5.0347    8.6316   19.5427 C.3         1 Y5H       0.0123
     27 C23        -5.8547    7.3132   19.6834 C.3         1 Y5H      -0.0286
     28 N29        -6.4587    6.6821   18.4347 N.4         1 Y5H       0.2369
     29 C32        -7.0158    5.3259   18.8003 C.3         1 Y5H      -0.0418
     30 C31        -5.4185    6.4942   17.3544 C.3         1 Y5H      -0.0418
     31 C30        -7.5921    7.5239   17.8956 C.3         1 Y5H      -0.0418
     32 H1         -8.3218   14.5962   26.4007 H           1 Y5H       0.0446
     33 H2         -6.0419   13.6024   26.6771 H           1 Y5H       0.0483
     34 H3         -1.6312   12.1055   25.4479 H           1 Y5H       0.0892
     35 H4         -0.4932   12.2613   23.1340 H           1 Y5H       0.1004
     36 H5         -1.8192   14.3296   22.0584 H           1 Y5H       0.2053
     37 H6         -3.0133   13.5532   20.4316 H           1 Y5H       0.0882
     38 H7         -1.9162   14.6188   18.6918 H           1 Y5H       0.0323
     39 H8         -0.7273   13.3134   18.5507 H           1 Y5H       0.0323
     40 H9         -0.5998   15.8109   20.2356 H           1 Y5H       0.0319
     41 H10         0.7313   14.9355   19.4380 H           1 Y5H       0.0319
     42 H11         0.7417   13.2176   21.1432 H           1 Y5H       0.0815
     43 H12         0.4171   14.6881   22.1032 H           1 Y5H       0.0815
     44 H13        -1.1705   11.3078   19.5475 H           1 Y5H       0.0632
     45 H14        -0.6667   10.5450   21.6340 H           1 Y5H       0.0648
     46 H15        -5.6478   10.0791   21.0553 H           1 Y5H       0.0578
     47 H16        -4.8116    8.6826   21.7083 H           1 Y5H       0.0578
     48 H17        -4.0607    8.3797   19.1099 H           1 Y5H       0.0340
     49 H18        -5.5535    9.3018   18.8537 H           1 Y5H       0.0340
     50 H19        -6.6568    7.4977   20.4056 H           1 Y5H       0.0816
     51 H20        -5.1765    6.6006   20.1610 H           1 Y5H       0.0816
     52 H21        -7.4708    4.8303   17.9392 H           1 Y5H       0.0778
     53 H22        -7.7832    5.4083   19.5732 H           1 Y5H       0.0778
     54 H23        -6.2358    4.6627   19.1813 H           1 Y5H       0.0778
     55 H24        -5.0121    7.4492   17.0117 H           1 Y5H       0.0778
     56 H25        -5.8345    5.9967   16.4739 H           1 Y5H       0.0778
     57 H26        -4.5780    5.8880   17.7050 H           1 Y5H       0.0778
     58 H27        -8.3521    7.7002   18.6634 H           1 Y5H       0.0778
     59 H28        -8.0904    7.0313   17.0535 H           1 Y5H       0.0778
     60 H29        -7.2432    8.4973   17.5417 H           1 Y5H       0.0778
@<TRIPOS>BOND
     1     1     2   1
     2     2     3   2
     3     2     5   1
     4     3     4   1
     5     4     6   2
     6     5     6   1
     7     6     7   1
     8     7     8   2
     9     7     9   1
    10     8    11   1
    11     9    10   1
    12    10    11   2
    13    11    12   1
    14    12    13   1
    15    12    19   1
    16    13    14   1
    17    13    17   1
    18    14    15   1
    19    14    18   1
    20    15    16   1
    21    16    17   1
    22    18    19   1
    23    18    22   1
    24    19    20   1
    25    20    21   2
    26    20    24  am
    27    22    23   2
    28    22    24  am
    29    24    25   1
    30    25    26   1
    31    26    27   1
    32    27    28   1
    33    28    29   1
    34    28    30   1
    35    28    31   1
    36     3    32   1
    37     4    33   1
    38    10    34   1
    39    12    35   1
    40    13    36   1
    41    14    37   1
    42    15    38   1
    43    15    39   1
    44    16    40   1
    45    16    41   1
    46    17    42   1
    47    17    43   1
    48    18    44   1
    49    19    45   1
    50    25    46   1
    51    25    47   1
    52    26    48   1
    53    26    49   1
    54    27    50   1
    55    27    51   1
    56    29    52   1
    57    29    53   1
    58    29    54   1
    59    30    55   1
    60    30    56   1
    61    30    57   1
    62    31    58   1
    63    31    59   1
    64    31    60   1
@<TRIPOS>SUBSTRUCTURE
     1  Y5H      1

