@<TRIPOS>MOLECULE
2y5h_ligand_080
    60    64
SMALL
GAST_HUCK
****
This file was generated by PARSER (from files_GN.cpp)

@<TRIPOS>ATOM
      1 CL1         3.0553   17.6004   21.5597 Cl          1 Y5H      -0.0522
      2 C25         1.8550   16.4588   21.8854 C.2         1 Y5H       0.0990
      3 C24         1.9030   15.4502   22.8513 C.2         1 Y5H      -0.0555
      4 C22         0.7512   14.6426   22.9037 C.2         1 Y5H      -0.0588
      5 S1          0.3383   16.3351   21.0849 S.3         1 Y5H      -0.0195
      6 C20        -0.2477   14.9875   21.9834 C.2         1 Y5H       0.0881
      7 C17        -1.4970   14.3619   21.8251 C.2         1 Y5H       0.1971
      8 N16        -2.4327   14.7154   20.9264 N.2         1 Y5H      -0.3009
      9 O10        -1.9353   13.3204   22.5708 O.3         1 Y5H      -0.2447
     10 C9         -3.1718   13.0256   22.1220 C.2         1 Y5H       0.0987
     11 C4         -3.4885   13.8980   21.0888 C.2         1 Y5H       0.0610
     12 C1         -4.7479   13.9777   20.3014 C.3         1 Y5H       0.0342
     13 N3         -5.8839   14.2964   21.2100 N.4         1 Y5H       0.2526
     14 C7         -6.6379   13.0544   21.4793 C.3         1 Y5H       0.0038
     15 C14        -8.1106   13.4701   21.7524 C.3         1 Y5H      -0.0022
     16 C15        -8.1255   15.0011   21.5941 C.3         1 Y5H      -0.0072
     17 C8         -6.8769   15.2949   20.7464 C.3         1 Y5H      -0.0298
     18 C5         -6.4088   12.1411   20.2422 C.3         1 Y5H       0.1231
     19 C2         -5.1853   12.7077   19.5080 C.3         1 Y5H       0.1287
     20 C6         -4.3136   11.5559   19.4440 C.2         1 Y5H       0.2198
     21 O13        -3.2413   11.5940   18.8614 O.2         1 Y5H      -0.3852
     22 C11        -6.0117   10.7867   20.5322 C.2         1 Y5H       0.2184
     23 O18        -6.7421   10.0303   21.1525 O.2         1 Y5H      -0.3853
     24 N12        -4.8285   10.4842   20.0254 N.am        1 Y5H      -0.1843
     25 C19        -4.1775    9.1870   20.1203 C.3         1 Y5H       0.0635
     26 C21        -4.5818    8.1833   18.9985 C.3         1 Y5H       0.0123
     27 C23        -5.9752    7.5165   19.2162 C.3         1 Y5H      -0.0286
     28 N29        -6.5098    6.5347   18.1809 N.4         1 Y5H       0.2369
     29 C32        -6.7027    7.2163   16.8457 C.3         1 Y5H      -0.0418
     30 C31        -7.8543    6.0307   18.6593 C.3         1 Y5H      -0.0418
     31 C30        -5.5850    5.3543   18.0120 C.3         1 Y5H      -0.0418
     32 H1          2.7076   15.3090   23.4707 H           1 Y5H       0.0446
     33 H2          0.6617   13.8668   23.5639 H           1 Y5H       0.0483
     34 H3         -3.7618   12.2813   22.4909 H           1 Y5H       0.0892
     35 H4         -4.6157   14.7966   19.5879 H           1 Y5H       0.1004
     36 H5         -5.5208   14.6423   22.1011 H           1 Y5H       0.2053
     37 H6         -6.2230   12.5968   22.3861 H           1 Y5H       0.0882
     38 H7         -8.4235   13.1881   22.7625 H           1 Y5H       0.0323
     39 H8         -8.8068   13.0172   21.0412 H           1 Y5H       0.0323
     40 H9         -8.0321   15.4835   22.5742 H           1 Y5H       0.0319
     41 H10        -9.0395   15.3565   21.1052 H           1 Y5H       0.0319
     42 H11        -7.1147   15.1716   19.6832 H           1 Y5H       0.0815
     43 H12        -6.5172   16.3132   20.9177 H           1 Y5H       0.0815
     44 H13        -7.2719   12.1295   19.5724 H           1 Y5H       0.0632
     45 H14        -5.4626   12.9881   18.4870 H           1 Y5H       0.0648
     46 H15        -4.3711    8.7380   21.1027 H           1 Y5H       0.0578
     47 H16        -3.0908    9.3194   20.0671 H           1 Y5H       0.0578
     48 H17        -3.8211    7.3980   18.9743 H           1 Y5H       0.0340
     49 H18        -4.5491    8.7002   18.0386 H           1 Y5H       0.0340
     50 H19        -6.7118    8.3213   19.3201 H           1 Y5H       0.0816
     51 H20        -5.9243    7.0169   20.1933 H           1 Y5H       0.0816
     52 H21        -7.1969    6.5509   16.1317 H           1 Y5H       0.0778
     53 H22        -5.7512    7.5182   16.3991 H           1 Y5H       0.0778
     54 H23        -7.3218    8.1134   16.9429 H           1 Y5H       0.0778
     55 H24        -7.7742    5.5345   19.6319 H           1 Y5H       0.0778
     56 H25        -8.2830    5.3074   17.9606 H           1 Y5H       0.0778
     57 H26        -8.5775    6.8455   18.7655 H           1 Y5H       0.0778
     58 H27        -4.6462    5.6346   17.5237 H           1 Y5H       0.0778
     59 H28        -6.0462    4.5786   17.3934 H           1 Y5H       0.0778
     60 H29        -5.3369    4.9057   18.9792 H           1 Y5H       0.0778
@<TRIPOS>BOND
     1     1     2   1
     2     2     3   2
     3     2     5   1
     4     3     4   1
     5     4     6   2
     6     5     6   1
     7     6     7   1
     8     7     8   2
     9     7     9   1
    10     8    11   1
    11     9    10   1
    12    10    11   2
    13    11    12   1
    14    12    13   1
    15    12    19   1
    16    13    14   1
    17    13    17   1
    18    14    15   1
    19    14    18   1
    20    15    16   1
    21    16    17   1
    22    18    19   1
    23    18    22   1
    24    19    20   1
    25    20    21   2
    26    20    24  am
    27    22    23   2
    28    22    24  am
    29    24    25   1
    30    25    26   1
    31    26    27   1
    32    27    28   1
    33    28    29   1
    34    28    30   1
    35    28    31   1
    36     3    32   1
    37     4    33   1
    38    10    34   1
    39    12    35   1
    40    13    36   1
    41    14    37   1
    42    15    38   1
    43    15    39   1
    44    16    40   1
    45    16    41   1
    46    17    42   1
    47    17    43   1
    48    18    44   1
    49    19    45   1
    50    25    46   1
    51    25    47   1
    52    26    48   1
    53    26    49   1
    54    27    50   1
    55    27    51   1
    56    29    52   1
    57    29    53   1
    58    29    54   1
    59    30    55   1
    60    30    56   1
    61    30    57   1
    62    31    58   1
    63    31    59   1
    64    31    60   1
@<TRIPOS>SUBSTRUCTURE
     1  Y5H      1

