@<TRIPOS>MOLECULE
2y5h_ligand_007
    60    64
SMALL
GAST_HUCK
****
This file was generated by PARSER (from files_GN.cpp)

@<TRIPOS>ATOM
      1 CL1        -7.9390    5.8107   17.2073 Cl          1 Y5H      -0.0522
      2 C25        -6.6058    6.5040   17.9757 C.2         1 Y5H       0.0990
      3 C24        -5.4821    5.8349   18.4631 C.2         1 Y5H      -0.0555
      4 C22        -4.5164    6.6775   19.0394 C.2         1 Y5H      -0.0588
      5 S1         -6.3858    8.1793   18.2888 S.3         1 Y5H      -0.0195
      6 C20        -4.8502    8.0376   19.0529 C.2         1 Y5H       0.0881
      7 C17        -4.0605    9.0904   19.5338 C.2         1 Y5H       0.1971
      8 N16        -4.3627   10.3999   19.4639 N.2         1 Y5H      -0.3009
      9 O10        -2.8207    8.9271   20.0482 O.3         1 Y5H      -0.2447
     10 C9         -2.3391   10.1606   20.2915 C.2         1 Y5H       0.0987
     11 C4         -3.3101   11.0879   19.9371 C.2         1 Y5H       0.0610
     12 C1         -3.1918   12.5687   19.9290 C.3         1 Y5H       0.0342
     13 N3         -2.2048   12.9503   18.8845 N.4         1 Y5H       0.2526
     14 C7         -0.9203   13.3044   19.5217 C.3         1 Y5H       0.0038
     15 C14        -0.2591   14.3518   18.5873 C.3         1 Y5H      -0.0022
     16 C15        -1.2675   14.5968   17.4508 C.3         1 Y5H      -0.0072
     17 C8         -2.5946   14.0818   18.0138 C.3         1 Y5H      -0.0298
     18 C5         -1.2709   13.7600   20.9682 C.3         1 Y5H       0.1231
     19 C2         -2.7146   13.2897   21.2271 C.3         1 Y5H       0.1287
     20 C6         -2.5838   12.5178   22.4343 C.2         1 Y5H       0.2198
     21 O13        -3.5444   11.9898   22.9770 O.2         1 Y5H      -0.3852
     22 C11        -0.5433   13.1230   22.0410 C.2         1 Y5H       0.2184
     23 O18         0.6695   13.2297   22.1649 O.2         1 Y5H      -0.3853
     24 N12        -1.3331   12.4490   22.8649 N.am        1 Y5H      -0.1843
     25 C19        -0.9134   11.6973   24.0345 C.3         1 Y5H       0.0635
     26 C21        -0.6957   10.1908   23.7064 C.3         1 Y5H       0.0123
     27 C23        -1.1248    9.1115   24.7507 C.3         1 Y5H      -0.0286
     28 N29        -0.5457    9.0119   26.1636 N.4         1 Y5H       0.2369
     29 C32        -1.4626    9.6768   27.1619 C.3         1 Y5H      -0.0418
     30 C31         0.8275    9.6291   26.2705 C.3         1 Y5H      -0.0418
     31 C30        -0.4265    7.5507   26.5492 C.3         1 Y5H      -0.0418
     32 H1         -5.3650    4.8210   18.4023 H           1 Y5H       0.0446
     33 H2         -3.6361    6.3179   19.4068 H           1 Y5H       0.0483
     34 H3         -1.4033   10.3647   20.6447 H           1 Y5H       0.0892
     35 H4         -4.1890   12.9547   19.6770 H           1 Y5H       0.1004
     36 H5         -2.0274   12.1400   18.2850 H           1 Y5H       0.2053
     37 H6         -0.2963   12.4052   19.5477 H           1 Y5H       0.0882
     38 H7          0.6714   13.9657   18.1686 H           1 Y5H       0.0323
     39 H8         -0.0377   15.2850   19.1088 H           1 Y5H       0.0323
     40 H9         -0.9943   14.0164   16.5642 H           1 Y5H       0.0319
     41 H10        -1.3331   15.6537   17.1807 H           1 Y5H       0.0319
     42 H11        -3.0861   14.8797   18.5819 H           1 Y5H       0.0815
     43 H12        -3.2628   13.7412   17.2195 H           1 Y5H       0.0815
     44 H13        -1.2020   14.8460   21.0814 H           1 Y5H       0.0632
     45 H14        -3.3556   14.1540   21.4339 H           1 Y5H       0.0648
     46 H15        -1.6652   11.8192   24.8208 H           1 Y5H       0.0578
     47 H16         0.0165   12.1124   24.4327 H           1 Y5H       0.0578
     48 H17         0.3535   10.0387   23.4529 H           1 Y5H       0.0340
     49 H18        -1.2577    9.9616   22.7916 H           1 Y5H       0.0340
     50 H19        -0.9209    8.1768   24.2145 H           1 Y5H       0.0816
     51 H20        -2.2220    9.1605   24.8031 H           1 Y5H       0.0816
     52 H21        -1.0898    9.5660   28.1841 H           1 Y5H       0.0778
     53 H22        -2.4669    9.2372   27.1370 H           1 Y5H       0.0778
     54 H23        -1.5681   10.7462   26.9645 H           1 Y5H       0.0778
     55 H24         1.5067    9.2155   25.5205 H           1 Y5H       0.0778
     56 H25         1.2654    9.4522   27.2591 H           1 Y5H       0.0778
     57 H26         0.7951   10.7097   26.1289 H           1 Y5H       0.0778
     58 H27        -1.3937    7.0395   26.4833 H           1 Y5H       0.0778
     59 H28        -0.0529    7.4234   27.5705 H           1 Y5H       0.0778
     60 H29         0.2648    7.0210   25.8841 H           1 Y5H       0.0778
@<TRIPOS>BOND
     1     1     2   1
     2     2     3   2
     3     2     5   1
     4     3     4   1
     5     4     6   2
     6     5     6   1
     7     6     7   1
     8     7     8   2
     9     7     9   1
    10     8    11   1
    11     9    10   1
    12    10    11   2
    13    11    12   1
    14    12    13   1
    15    12    19   1
    16    13    14   1
    17    13    17   1
    18    14    15   1
    19    14    18   1
    20    15    16   1
    21    16    17   1
    22    18    19   1
    23    18    22   1
    24    19    20   1
    25    20    21   2
    26    20    24  am
    27    22    23   2
    28    22    24  am
    29    24    25   1
    30    25    26   1
    31    26    27   1
    32    27    28   1
    33    28    29   1
    34    28    30   1
    35    28    31   1
    36     3    32   1
    37     4    33   1
    38    10    34   1
    39    12    35   1
    40    13    36   1
    41    14    37   1
    42    15    38   1
    43    15    39   1
    44    16    40   1
    45    16    41   1
    46    17    42   1
    47    17    43   1
    48    18    44   1
    49    19    45   1
    50    25    46   1
    51    25    47   1
    52    26    48   1
    53    26    49   1
    54    27    50   1
    55    27    51   1
    56    29    52   1
    57    29    53   1
    58    29    54   1
    59    30    55   1
    60    30    56   1
    61    30    57   1
    62    31    58   1
    63    31    59   1
    64    31    60   1
@<TRIPOS>SUBSTRUCTURE
     1  Y5H      1

