@<TRIPOS>MOLECULE
2y5h_ligand_021
    60    64
SMALL
GAST_HUCK
****
This file was generated by PARSER (from files_GN.cpp)

@<TRIPOS>ATOM
      1 CL1        -3.4310   21.1818   21.9014 Cl          1 Y5H      -0.0522
      2 C25        -2.4414   19.9038   21.4097 C.2         1 Y5H       0.0990
      3 C24        -1.0948   19.9751   21.0403 C.2         1 Y5H      -0.0555
      4 C22        -0.5267   18.7403   20.6846 C.2         1 Y5H      -0.0588
      5 S1         -2.9167   18.2577   21.3005 S.3         1 Y5H      -0.0195
      6 C20        -1.3963   17.6434   20.7754 C.2         1 Y5H       0.0881
      7 C17        -1.1135   16.3102   20.4505 C.2         1 Y5H       0.1971
      8 N16        -1.9932   15.2983   20.5371 N.2         1 Y5H      -0.3009
      9 O10         0.0718   15.8634   19.9717 O.3         1 Y5H      -0.2447
     10 C9         -0.0815   14.5410   19.7468 C.2         1 Y5H       0.0987
     11 C4         -1.3784   14.1872   20.0995 C.2         1 Y5H       0.0610
     12 C1         -1.9944   12.8504   19.9279 C.3         1 Y5H       0.0342
     13 N3         -3.3900   12.7876   20.4447 N.4         1 Y5H       0.2526
     14 C7         -3.7167   11.3650   20.6405 C.3         1 Y5H       0.0038
     15 C14        -4.4531   10.9441   19.3533 C.3         1 Y5H      -0.0022
     16 C15        -5.2618   12.1969   18.9918 C.3         1 Y5H      -0.0072
     17 C8         -4.4504   13.3709   19.5786 C.3         1 Y5H      -0.0298
     18 C5         -2.3760   10.6412   20.9258 C.3         1 Y5H       0.1231
     19 C2         -1.2603   11.6513   20.5921 C.3         1 Y5H       0.1287
     20 C6         -0.6294   11.8484   21.8801 C.2         1 Y5H       0.2198
     21 O13         0.3723   12.5489   22.0186 O.2         1 Y5H      -0.3852
     22 C11        -2.1485   10.3885   22.3325 C.2         1 Y5H       0.2184
     23 O18        -2.8717    9.6254   22.9591 O.2         1 Y5H      -0.3853
     24 N12        -1.1640   11.1108   22.8361 N.am        1 Y5H      -0.1843
     25 C19        -0.7604   11.1070   24.2326 C.3         1 Y5H       0.0635
     26 C21        -0.1667    9.7474   24.7314 C.3         1 Y5H       0.0123
     27 C23        -1.1500    8.7328   25.4111 C.3         1 Y5H      -0.0286
     28 N29        -1.4245    8.7858   26.9119 N.4         1 Y5H       0.2369
     29 C32        -2.2478    7.5716   27.2879 C.3         1 Y5H      -0.0418
     30 C31        -2.2071   10.0168   27.2883 C.3         1 Y5H      -0.0418
     31 C30        -0.1469    8.7392   27.7110 C.3         1 Y5H      -0.0418
     32 H1         -0.5677   20.8509   21.0268 H           1 Y5H       0.0446
     33 H2          0.4480   18.6512   20.3940 H           1 Y5H       0.0483
     34 H3          0.6248   13.9136   19.3610 H           1 Y5H       0.0892
     35 H4         -2.0087   12.6537   18.8503 H           1 Y5H       0.1004
     36 H5         -3.4139   13.2450   21.3599 H           1 Y5H       0.2053
     37 H6         -4.4104   11.2749   21.4869 H           1 Y5H       0.0882
     38 H7         -5.0927   10.0746   19.5252 H           1 Y5H       0.0323
     39 H8         -3.7440   10.7116   18.5517 H           1 Y5H       0.0323
     40 H9         -6.2482   12.1476   19.4569 H           1 Y5H       0.0319
     41 H10        -5.3841   12.2870   17.9111 H           1 Y5H       0.0319
     42 H11        -4.0373   13.9868   18.7740 H           1 Y5H       0.0815
     43 H12        -5.0962   14.0105   20.1848 H           1 Y5H       0.0815
     44 H13        -2.2661    9.7139   20.3589 H           1 Y5H       0.0632
     45 H14        -0.5288   11.2174   19.9017 H           1 Y5H       0.0648
     46 H15        -1.6191   11.4137   24.8461 H           1 Y5H       0.0578
     47 H16         0.0006   11.8793   24.4014 H           1 Y5H       0.0578
     48 H17         0.6615    9.9526   25.4258 H           1 Y5H       0.0340
     49 H18         0.2857    9.2529   23.8635 H           1 Y5H       0.0340
     50 H19        -0.7663    7.7305   25.1689 H           1 Y5H       0.0816
     51 H20        -2.1025    8.8250   24.8768 H           1 Y5H       0.0816
     52 H21        -2.4440    7.5269   28.3659 H           1 Y5H       0.0778
     53 H22        -1.7327    6.6407   27.0166 H           1 Y5H       0.0778
     54 H23        -3.2202    7.5668   26.7802 H           1 Y5H       0.0778
     55 H24        -1.6242   10.9219   27.1101 H           1 Y5H       0.0778
     56 H25        -2.4787   10.0128   28.3494 H           1 Y5H       0.0778
     57 H26        -3.1338   10.0961   26.7115 H           1 Y5H       0.0778
     58 H27         0.4520    7.8560   27.4452 H           1 Y5H       0.0778
     59 H28        -0.3637    8.6895   28.7848 H           1 Y5H       0.0778
     60 H29         0.4670    9.6326   27.5533 H           1 Y5H       0.0778
@<TRIPOS>BOND
     1     1     2   1
     2     2     3   2
     3     2     5   1
     4     3     4   1
     5     4     6   2
     6     5     6   1
     7     6     7   1
     8     7     8   2
     9     7     9   1
    10     8    11   1
    11     9    10   1
    12    10    11   2
    13    11    12   1
    14    12    13   1
    15    12    19   1
    16    13    14   1
    17    13    17   1
    18    14    15   1
    19    14    18   1
    20    15    16   1
    21    16    17   1
    22    18    19   1
    23    18    22   1
    24    19    20   1
    25    20    21   2
    26    20    24  am
    27    22    23   2
    28    22    24  am
    29    24    25   1
    30    25    26   1
    31    26    27   1
    32    27    28   1
    33    28    29   1
    34    28    30   1
    35    28    31   1
    36     3    32   1
    37     4    33   1
    38    10    34   1
    39    12    35   1
    40    13    36   1
    41    14    37   1
    42    15    38   1
    43    15    39   1
    44    16    40   1
    45    16    41   1
    46    17    42   1
    47    17    43   1
    48    18    44   1
    49    19    45   1
    50    25    46   1
    51    25    47   1
    52    26    48   1
    53    26    49   1
    54    27    50   1
    55    27    51   1
    56    29    52   1
    57    29    53   1
    58    29    54   1
    59    30    55   1
    60    30    56   1
    61    30    57   1
    62    31    58   1
    63    31    59   1
    64    31    60   1
@<TRIPOS>SUBSTRUCTURE
     1  Y5H      1

