@<TRIPOS>MOLECULE
2y5h_ligand_088
    60    64
SMALL
GAST_HUCK
****
This file was generated by PARSER (from files_GN.cpp)

@<TRIPOS>ATOM
      1 CL1         1.3799   13.9583   22.6277 Cl          1 Y5H      -0.0522
      2 C25         0.2308   13.5099   21.4764 C.2         1 Y5H       0.0990
      3 C24        -0.1057   14.2068   20.3134 C.2         1 Y5H      -0.0555
      4 C22        -1.1204   13.6010   19.5492 C.2         1 Y5H      -0.0588
      5 S1         -0.7610   12.1106   21.5463 S.3         1 Y5H      -0.0195
      6 C20        -1.6170   12.4047   20.0825 C.2         1 Y5H       0.0881
      7 C17        -2.6324   11.6066   19.5465 C.2         1 Y5H       0.1971
      8 N16        -3.0938   10.4725   20.1046 N.2         1 Y5H      -0.3009
      9 O10        -3.3171   11.8726   18.4098 O.3         1 Y5H      -0.2447
     10 C9         -4.2149   10.8821   18.2592 C.2         1 Y5H       0.0987
     11 C4         -4.0801   10.0002   19.3269 C.2         1 Y5H       0.0610
     12 C1         -4.9022    8.8109   19.6640 C.3         1 Y5H       0.0342
     13 N3         -4.9643    7.8553   18.5241 N.4         1 Y5H       0.2526
     14 C7         -6.2657    8.0097   17.8420 C.3         1 Y5H       0.0038
     15 C14        -6.5978    6.6335   17.2044 C.3         1 Y5H      -0.0022
     16 C15        -5.4266    5.7210   17.6090 C.3         1 Y5H      -0.0072
     17 C8         -4.8408    6.4144   18.8465 C.3         1 Y5H      -0.0298
     18 C5         -7.2525    8.5092   18.9359 C.3         1 Y5H       0.1231
     19 C2         -6.3817    9.1054   20.0572 C.3         1 Y5H       0.1287
     20 C6         -6.8592   10.4658   20.1269 C.2         1 Y5H       0.2198
     21 O13        -6.4269   11.2638   20.9479 O.2         1 Y5H      -0.3852
     22 C11        -8.0777    9.6230   18.5567 C.2         1 Y5H       0.2184
     23 O18        -8.9161    9.5242   17.6652 O.2         1 Y5H      -0.3853
     24 N12        -7.8355   10.7091   19.2686 N.am        1 Y5H      -0.1843
     25 C19        -8.5503   11.9592   19.1298 C.3         1 Y5H       0.0635
     26 C21        -9.9647   11.9245   19.7803 C.3         1 Y5H       0.0123
     27 C23        -9.9975   12.1142   21.3389 C.3         1 Y5H      -0.0286
     28 N29       -10.4223   10.9564   22.2341 N.4         1 Y5H       0.2369
     29 C32       -10.4288   11.4401   23.6704 C.3         1 Y5H      -0.0418
     30 C31        -9.4437    9.8169   22.1297 C.3         1 Y5H      -0.0418
     31 C30       -11.8126   10.4669   21.8997 C.3         1 Y5H      -0.0418
     32 H1          0.3403   15.0827   20.0404 H           1 Y5H       0.0446
     33 H2         -1.4664   14.0079   18.6784 H           1 Y5H       0.0483
     34 H3         -4.8945   10.8202   17.4976 H           1 Y5H       0.0892
     35 H4         -4.4155    8.3333   20.5193 H           1 Y5H       0.1004
     36 H5         -4.2227    8.0754   17.8559 H           1 Y5H       0.2053
     37 H6         -6.1471    8.7526   17.0468 H           1 Y5H       0.0882
     38 H7         -6.6656    6.7054   16.1157 H           1 Y5H       0.0323
     39 H8         -7.5395    6.2248   17.5809 H           1 Y5H       0.0323
     40 H9         -4.6746    5.6941   16.8127 H           1 Y5H       0.0319
     41 H10        -5.7558    4.7012   17.8330 H           1 Y5H       0.0319
     42 H11        -5.4261    6.1433   19.7318 H           1 Y5H       0.0815
     43 H12        -3.7980    6.1298   19.0040 H           1 Y5H       0.0815
     44 H13        -7.8814    7.7024   19.3338 H           1 Y5H       0.0632
     45 H14        -6.6153    8.6142   21.0075 H           1 Y5H       0.0648
     46 H15        -8.6595   12.1752   18.0622 H           1 Y5H       0.0578
     47 H16        -7.9883   12.7979   19.5530 H           1 Y5H       0.0578
     48 H17       -10.4632   11.0008   19.4845 H           1 Y5H       0.0340
     49 H18       -10.5475   12.7336   19.3270 H           1 Y5H       0.0340
     50 H19       -10.6693   12.9607   21.5361 H           1 Y5H       0.0816
     51 H20        -9.0054   12.4559   21.6612 H           1 Y5H       0.0816
     52 H21       -10.6897   10.6386   24.3698 H           1 Y5H       0.0778
     53 H22       -11.1547   12.2478   23.8136 H           1 Y5H       0.0778
     54 H23        -9.4491   11.8256   23.9731 H           1 Y5H       0.0778
     55 H24        -9.4052    9.4154   21.1164 H           1 Y5H       0.0778
     56 H25        -9.7235    8.9924   22.7893 H           1 Y5H       0.0778
     57 H26        -8.4320   10.1346   22.4056 H           1 Y5H       0.0778
     58 H27       -12.5393   11.2863   21.9356 H           1 Y5H       0.0778
     59 H28       -12.1405    9.6980   22.6084 H           1 Y5H       0.0778
     60 H29       -11.8673   10.0182   20.9047 H           1 Y5H       0.0778
@<TRIPOS>BOND
     1     1     2   1
     2     2     3   2
     3     2     5   1
     4     3     4   1
     5     4     6   2
     6     5     6   1
     7     6     7   1
     8     7     8   2
     9     7     9   1
    10     8    11   1
    11     9    10   1
    12    10    11   2
    13    11    12   1
    14    12    13   1
    15    12    19   1
    16    13    14   1
    17    13    17   1
    18    14    15   1
    19    14    18   1
    20    15    16   1
    21    16    17   1
    22    18    19   1
    23    18    22   1
    24    19    20   1
    25    20    21   2
    26    20    24  am
    27    22    23   2
    28    22    24  am
    29    24    25   1
    30    25    26   1
    31    26    27   1
    32    27    28   1
    33    28    29   1
    34    28    30   1
    35    28    31   1
    36     3    32   1
    37     4    33   1
    38    10    34   1
    39    12    35   1
    40    13    36   1
    41    14    37   1
    42    15    38   1
    43    15    39   1
    44    16    40   1
    45    16    41   1
    46    17    42   1
    47    17    43   1
    48    18    44   1
    49    19    45   1
    50    25    46   1
    51    25    47   1
    52    26    48   1
    53    26    49   1
    54    27    50   1
    55    27    51   1
    56    29    52   1
    57    29    53   1
    58    29    54   1
    59    30    55   1
    60    30    56   1
    61    30    57   1
    62    31    58   1
    63    31    59   1
    64    31    60   1
@<TRIPOS>SUBSTRUCTURE
     1  Y5H      1

