@<TRIPOS>MOLECULE
2y5h_ligand_026
    60    64
SMALL
GAST_HUCK
****
This file was generated by PARSER (from files_GN.cpp)

@<TRIPOS>ATOM
      1 CL1        -3.5435   16.2884   11.6770 Cl          1 Y5H      -0.0522
      2 C25        -2.0968   16.6160   12.4867 C.2         1 Y5H       0.0990
      3 C24        -0.8067   16.5737   11.9490 C.2         1 Y5H      -0.0555
      4 C22         0.2145   16.8749   12.8684 C.2         1 Y5H      -0.0588
      5 S1         -1.9522   17.0415   14.1455 S.3         1 Y5H      -0.0195
      6 C20        -0.2328   17.1702   14.1618 C.2         1 Y5H       0.0881
      7 C17         0.5553   17.4608   15.2830 C.2         1 Y5H       0.1971
      8 N16         0.0732   17.7245   16.5076 N.2         1 Y5H      -0.3009
      9 O10         1.9111   17.4548   15.3030 O.3         1 Y5H      -0.2447
     10 C9          2.2691   17.7172   16.5778 C.2         1 Y5H       0.0987
     11 C4          1.1181   17.8776   17.3335 C.2         1 Y5H       0.0610
     12 C1          0.9864   18.1318   18.7874 C.3         1 Y5H       0.0342
     13 N3          2.2377   17.9971   19.5858 N.4         1 Y5H       0.2526
     14 C7          1.8302   17.8193   20.9931 C.3         1 Y5H       0.0038
     15 C14         1.9597   19.2171   21.6326 C.3         1 Y5H      -0.0022
     16 C15         3.1828   19.8141   20.9183 C.3         1 Y5H      -0.0072
     17 C8          3.2029   19.1299   19.5325 C.3         1 Y5H      -0.0298
     18 C5          0.3970   17.2209   20.9682 C.3         1 Y5H       0.1231
     19 C2         -0.0292   17.1954   19.4924 C.3         1 Y5H       0.1287
     20 C6         -0.0247   15.7784   19.2055 C.2         1 Y5H       0.2198
     21 O13        -0.3232   15.3340   18.1027 O.2         1 Y5H      -0.3852
     22 C11         0.3418   15.8349   21.3287 C.2         1 Y5H       0.2184
     23 O18         0.4945   15.4522   22.4867 O.2         1 Y5H      -0.3853
     24 N12         0.1148   15.0462   20.2935 N.am        1 Y5H      -0.1843
     25 C19        -0.0720   13.6157   20.3786 C.3         1 Y5H       0.0635
     26 C21        -1.5177   13.2992   20.8535 C.3         1 Y5H       0.0123
     27 C23        -1.8724   11.8317   21.2523 C.3         1 Y5H      -0.0286
     28 N29        -1.2664   11.1727   22.4959 N.4         1 Y5H       0.2369
     29 C32        -2.2390   10.1410   23.0348 C.3         1 Y5H      -0.0418
     30 C31        -1.0004   12.1757   23.5960 C.3         1 Y5H      -0.0418
     31 C30         0.0060   10.4261   22.1657 C.3         1 Y5H      -0.0418
     32 H1         -0.6215   16.3352   10.9688 H           1 Y5H       0.0446
     33 H2          1.2039   16.8682   12.6038 H           1 Y5H       0.0483
     34 H3          3.2310   17.7733   16.9150 H           1 Y5H       0.0892
     35 H4          0.6081   19.1567   18.8869 H           1 Y5H       0.1004
     36 H5          2.7119   17.1358   19.2946 H           1 Y5H       0.2053
     37 H6          2.5449   17.1450   21.4771 H           1 Y5H       0.0882
     38 H7          2.1079   19.1537   22.7127 H           1 Y5H       0.0323
     39 H8          1.0748   19.8279   21.4256 H           1 Y5H       0.0323
     40 H9          4.0929   19.5699   21.4739 H           1 Y5H       0.0319
     41 H10         3.0983   20.9018   20.8359 H           1 Y5H       0.0319
     42 H11         2.9539   19.8539   18.7519 H           1 Y5H       0.0815
     43 H12         4.2019   18.7402   19.3228 H           1 Y5H       0.0815
     44 H13        -0.3097   17.7953   21.5736 H           1 Y5H       0.0632
     45 H14        -1.0463   17.5790   19.3698 H           1 Y5H       0.0648
     46 H15         0.6616   13.2238   21.0764 H           1 Y5H       0.0578
     47 H16         0.1121   13.1283   19.4132 H           1 Y5H       0.0578
     48 H17        -2.1902   13.5726   20.0297 H           1 Y5H       0.0340
     49 H18        -1.7766   13.9554   21.6863 H           1 Y5H       0.0340
     50 H19        -1.7061   11.1953   20.3805 H           1 Y5H       0.0816
     51 H20        -2.9621   11.8679   21.3751 H           1 Y5H       0.0816
     52 H21        -1.8398    9.6109   23.9063 H           1 Y5H       0.0778
     53 H22        -2.4762    9.3871   22.2742 H           1 Y5H       0.0778
     54 H23        -3.1827   10.6053   23.3447 H           1 Y5H       0.0778
     55 H24        -0.2130   12.8806   23.3121 H           1 Y5H       0.0778
     56 H25        -0.6791   11.6939   24.5200 H           1 Y5H       0.0778
     57 H26        -1.9027   12.7573   23.8185 H           1 Y5H       0.0778
     58 H27        -0.1746    9.6495   21.4132 H           1 Y5H       0.0778
     59 H28         0.4284    9.9330   23.0498 H           1 Y5H       0.0778
     60 H29         0.7839   11.0741   21.7724 H           1 Y5H       0.0778
@<TRIPOS>BOND
     1     1     2   1
     2     2     3   2
     3     2     5   1
     4     3     4   1
     5     4     6   2
     6     5     6   1
     7     6     7   1
     8     7     8   2
     9     7     9   1
    10     8    11   1
    11     9    10   1
    12    10    11   2
    13    11    12   1
    14    12    13   1
    15    12    19   1
    16    13    14   1
    17    13    17   1
    18    14    15   1
    19    14    18   1
    20    15    16   1
    21    16    17   1
    22    18    19   1
    23    18    22   1
    24    19    20   1
    25    20    21   2
    26    20    24  am
    27    22    23   2
    28    22    24  am
    29    24    25   1
    30    25    26   1
    31    26    27   1
    32    27    28   1
    33    28    29   1
    34    28    30   1
    35    28    31   1
    36     3    32   1
    37     4    33   1
    38    10    34   1
    39    12    35   1
    40    13    36   1
    41    14    37   1
    42    15    38   1
    43    15    39   1
    44    16    40   1
    45    16    41   1
    46    17    42   1
    47    17    43   1
    48    18    44   1
    49    19    45   1
    50    25    46   1
    51    25    47   1
    52    26    48   1
    53    26    49   1
    54    27    50   1
    55    27    51   1
    56    29    52   1
    57    29    53   1
    58    29    54   1
    59    30    55   1
    60    30    56   1
    61    30    57   1
    62    31    58   1
    63    31    59   1
    64    31    60   1
@<TRIPOS>SUBSTRUCTURE
     1  Y5H      1

