@<TRIPOS>MOLECULE
2y5h_ligand_082
    60    64
SMALL
GAST_HUCK
****
This file was generated by PARSER (from files_GN.cpp)

@<TRIPOS>ATOM
      1 CL1        -1.5928   15.0132   14.0835 Cl          1 Y5H      -0.0522
      2 C25        -1.2901   15.1554   15.7369 C.2         1 Y5H       0.0990
      3 C24        -0.0790   15.4958   16.3386 C.2         1 Y5H      -0.0555
      4 C22        -0.1165   15.5235   17.7444 C.2         1 Y5H      -0.0588
      5 S1         -2.4320   14.8860   16.9920 S.3         1 Y5H      -0.0195
      6 C20        -1.3634   15.2103   18.3019 C.2         1 Y5H       0.0881
      7 C17        -1.6840   15.1366   19.6610 C.2         1 Y5H       0.1971
      8 N16        -2.8945   14.8200   20.1520 N.2         1 Y5H      -0.3009
      9 O10        -0.8157   15.3410   20.6778 O.3         1 Y5H      -0.2447
     10 C9         -1.5015   15.1361   21.8186 C.2         1 Y5H       0.0987
     11 C4         -2.8138   14.7974   21.4923 C.2         1 Y5H       0.0610
     12 C1         -3.9732   14.4948   22.3798 C.3         1 Y5H       0.0342
     13 N3         -3.5706   14.3157   23.8040 N.4         1 Y5H       0.2526
     14 C7         -3.4111   12.8701   24.0529 C.3         1 Y5H       0.0038
     15 C14        -3.6318   12.6595   25.5735 C.3         1 Y5H      -0.0022
     16 C15        -4.0714   14.0358   26.1092 C.3         1 Y5H      -0.0072
     17 C8         -4.4888   14.8196   24.8523 C.3         1 Y5H      -0.0298
     18 C5         -4.4494   12.1806   23.1233 C.3         1 Y5H       0.1231
     19 C2         -4.7843   13.2038   22.0233 C.3         1 Y5H       0.1287
     20 C6         -4.4846   12.4467   20.8249 C.2         1 Y5H       0.2198
     21 O13        -4.7276   12.8824   19.7097 O.2         1 Y5H      -0.3852
     22 C11        -3.9582   11.0486   22.3829 C.2         1 Y5H       0.2184
     23 O18        -3.5829   10.0264   22.9404 O.2         1 Y5H      -0.3853
     24 N12        -4.0048   11.2366   21.0752 N.am        1 Y5H      -0.1843
     25 C19        -3.5335   10.2901   20.0864 C.3         1 Y5H       0.0635
     26 C21        -4.3990    9.0112   19.9324 C.3         1 Y5H       0.0123
     27 C23        -5.5871    9.1276   18.9210 C.3         1 Y5H      -0.0286
     28 N29        -6.2011    7.8366   18.3913 N.4         1 Y5H       0.2369
     29 C32        -5.2863    7.1687   17.3871 C.3         1 Y5H      -0.0418
     30 C31        -7.5012    8.1604   17.6858 C.3         1 Y5H      -0.0418
     31 C30        -6.5037    6.8750   19.5125 C.3         1 Y5H      -0.0418
     32 H1          0.7692   15.7020   15.8068 H           1 Y5H       0.0446
     33 H2          0.7034   15.7568   18.3092 H           1 Y5H       0.0483
     34 H3         -1.1042   15.2174   22.7542 H           1 Y5H       0.0892
     35 H4         -4.6331   15.3644   22.2985 H           1 Y5H       0.1004
     36 H5         -2.6731   14.7790   23.9700 H           1 Y5H       0.2053
     37 H6         -2.3873   12.5875   23.7821 H           1 Y5H       0.0882
     38 H7         -2.7052   12.3400   26.0594 H           1 Y5H       0.0323
     39 H8         -4.3990   11.9056   25.7753 H           1 Y5H       0.0323
     40 H9         -3.2260   14.5337   26.5952 H           1 Y5H       0.0319
     41 H10        -4.8967   13.9497   26.8215 H           1 Y5H       0.0319
     42 H11        -5.5366   14.6091   24.6110 H           1 Y5H       0.0815
     43 H12        -4.3610   15.8943   24.9981 H           1 Y5H       0.0815
     44 H13        -5.3623   11.9021   23.6602 H           1 Y5H       0.0632
     45 H14        -5.8547   13.4298   22.0389 H           1 Y5H       0.0648
     46 H15        -2.5211    9.9783   20.3629 H           1 Y5H       0.0578
     47 H16        -3.4342   10.7647   19.1027 H           1 Y5H       0.0578
     48 H17        -4.7915    8.7218   20.9103 H           1 Y5H       0.0340
     49 H18        -3.7252    8.2183   19.6111 H           1 Y5H       0.0340
     50 H19        -5.2484    9.7246   18.0678 H           1 Y5H       0.0816
     51 H20        -6.3536    9.7299   19.4253 H           1 Y5H       0.0816
     52 H21        -5.7260    6.2465   16.9941 H           1 Y5H       0.0778
     53 H22        -4.3243    6.8970   17.8241 H           1 Y5H       0.0778
     54 H23        -5.0844    7.8233   16.5354 H           1 Y5H       0.0778
     55 H24        -8.2303    8.5955   18.3737 H           1 Y5H       0.0778
     56 H25        -7.9607    7.2644   17.2563 H           1 Y5H       0.0778
     57 H26        -7.3475    8.8729   16.8704 H           1 Y5H       0.0778
     58 H27        -5.5872    6.5206   19.9900 H           1 Y5H       0.0778
     59 H28        -7.0403    5.9894   19.1571 H           1 Y5H       0.0778
     60 H29        -7.1196    7.3512   20.2808 H           1 Y5H       0.0778
@<TRIPOS>BOND
     1     1     2   1
     2     2     3   2
     3     2     5   1
     4     3     4   1
     5     4     6   2
     6     5     6   1
     7     6     7   1
     8     7     8   2
     9     7     9   1
    10     8    11   1
    11     9    10   1
    12    10    11   2
    13    11    12   1
    14    12    13   1
    15    12    19   1
    16    13    14   1
    17    13    17   1
    18    14    15   1
    19    14    18   1
    20    15    16   1
    21    16    17   1
    22    18    19   1
    23    18    22   1
    24    19    20   1
    25    20    21   2
    26    20    24  am
    27    22    23   2
    28    22    24  am
    29    24    25   1
    30    25    26   1
    31    26    27   1
    32    27    28   1
    33    28    29   1
    34    28    30   1
    35    28    31   1
    36     3    32   1
    37     4    33   1
    38    10    34   1
    39    12    35   1
    40    13    36   1
    41    14    37   1
    42    15    38   1
    43    15    39   1
    44    16    40   1
    45    16    41   1
    46    17    42   1
    47    17    43   1
    48    18    44   1
    49    19    45   1
    50    25    46   1
    51    25    47   1
    52    26    48   1
    53    26    49   1
    54    27    50   1
    55    27    51   1
    56    29    52   1
    57    29    53   1
    58    29    54   1
    59    30    55   1
    60    30    56   1
    61    30    57   1
    62    31    58   1
    63    31    59   1
    64    31    60   1
@<TRIPOS>SUBSTRUCTURE
     1  Y5H      1

