@<TRIPOS>MOLECULE
2y5h_ligand_008
    60    64
SMALL
GAST_HUCK
****
This file was generated by PARSER (from files_GN.cpp)

@<TRIPOS>ATOM
      1 CL1         4.1692   17.2937   24.0545 Cl          1 Y5H      -0.0522
      2 C25         2.9440   17.1590   22.9001 C.2         1 Y5H       0.0990
      3 C24         2.5633   18.1244   21.9673 C.2         1 Y5H      -0.0555
      4 C22         1.5235   17.7260   21.1084 C.2         1 Y5H      -0.0588
      5 S1          1.9640   15.7741   22.6456 S.3         1 Y5H      -0.0195
      6 C20         1.0492   16.4225   21.3381 C.2         1 Y5H       0.0881
      7 C17         0.0815   15.7339   20.5937 C.2         1 Y5H       0.1971
      8 N16        -0.2980   14.4684   20.8394 N.2         1 Y5H      -0.3009
      9 O10        -0.5420   16.1914   19.4899 O.3         1 Y5H      -0.2447
     10 C9         -1.3235   15.1795   19.0501 C.2         1 Y5H       0.0987
     11 C4         -1.1575   14.0878   19.8943 C.2         1 Y5H       0.0610
     12 C1         -1.7947   12.7434   19.7440 C.3         1 Y5H       0.0342
     13 N3         -3.2289   12.7792   20.1558 N.4         1 Y5H       0.2526
     14 C7         -3.6336   11.3954   20.4563 C.3         1 Y5H       0.0038
     15 C14        -4.3378   10.8743   19.1894 C.3         1 Y5H      -0.0022
     16 C15        -5.0808   12.1159   18.6829 C.3         1 Y5H      -0.0072
     17 C8         -4.2343   13.3058   19.1883 C.3         1 Y5H      -0.0298
     18 C5         -2.3551   10.6242   20.8653 C.3         1 Y5H       0.1231
     19 C2         -1.1587   11.5117   20.4741 C.3         1 Y5H       0.1287
     20 C6         -0.4940   11.6535   21.7549 C.2         1 Y5H       0.2198
     21 O13         0.6488   12.0936   21.8381 O.2         1 Y5H      -0.3852
     22 C11        -2.2151   10.4971   22.2917 C.2         1 Y5H       0.2184
     23 O18        -3.0509    9.8969   22.9538 O.2         1 Y5H      -0.3853
     24 N12        -1.1428   11.1003   22.7656 N.am        1 Y5H      -0.1843
     25 C19        -0.7628   11.1707   24.1679 C.3         1 Y5H       0.0635
     26 C21        -0.1878    9.8524   24.7694 C.3         1 Y5H       0.0123
     27 C23        -1.1937    8.8331   25.4113 C.3         1 Y5H      -0.0286
     28 N29        -1.4745    8.8141   26.9117 N.4         1 Y5H       0.2369
     29 C32        -2.2854   10.0144   27.3286 C.3         1 Y5H      -0.0418
     30 C31        -0.2008    8.7558   27.7172 C.3         1 Y5H      -0.0418
     31 C30        -2.2742    7.5689   27.2437 C.3         1 Y5H      -0.0418
     32 H1          3.0058   19.0407   21.9028 H           1 Y5H       0.0446
     33 H2          1.1573   18.3255   20.3724 H           1 Y5H       0.0483
     34 H3         -1.9004   15.2230   18.2086 H           1 Y5H       0.0892
     35 H4         -1.7435   12.5082   18.6749 H           1 Y5H       0.1004
     36 H5         -3.2945   13.3187   21.0229 H           1 Y5H       0.2053
     37 H6         -4.3717   11.4161   21.2668 H           1 Y5H       0.0882
     38 H7         -5.0232   10.0529   19.4157 H           1 Y5H       0.0323
     39 H8         -3.6118   10.5434   18.4420 H           1 Y5H       0.0323
     40 H9         -6.0871   12.1527   19.1133 H           1 Y5H       0.0319
     41 H10        -5.1607   12.1059   17.5923 H           1 Y5H       0.0319
     42 H11        -3.7736   13.8102   18.3376 H           1 Y5H       0.0815
     43 H12        -4.8748   14.0281   19.7012 H           1 Y5H       0.0815
     44 H13        -2.2940    9.6388   20.3918 H           1 Y5H       0.0632
     45 H14        -0.4881   10.9749   19.7912 H           1 Y5H       0.0648
     46 H15        -1.6083   11.5184   24.7631 H           1 Y5H       0.0578
     47 H16         0.0066   11.9397   24.2816 H           1 Y5H       0.0578
     48 H17         0.5718   10.1133   25.5051 H           1 Y5H       0.0340
     49 H18         0.3477    9.3462   23.9592 H           1 Y5H       0.0340
     50 H19        -0.8190    7.8409   25.1346 H           1 Y5H       0.0816
     51 H20        -2.1403    8.9377   24.8878 H           1 Y5H       0.0816
     52 H21        -2.5258    9.9868   28.3954 H           1 Y5H       0.0778
     53 H22        -3.2305   10.0645   26.7786 H           1 Y5H       0.0778
     54 H23        -1.7457   10.9436   27.1455 H           1 Y5H       0.0778
     55 H24         0.4439    7.9429   27.3788 H           1 Y5H       0.0778
     56 H25        -0.4064    8.5841   28.7748 H           1 Y5H       0.0778
     57 H26         0.3690    9.6822   27.6549 H           1 Y5H       0.0778
     58 H27        -3.2381    7.5685   26.7339 H           1 Y5H       0.0778
     59 H28        -2.4817    7.4846   28.3153 H           1 Y5H       0.0778
     60 H29        -1.7441    6.6586   26.9452 H           1 Y5H       0.0778
@<TRIPOS>BOND
     1     1     2   1
     2     2     3   2
     3     2     5   1
     4     3     4   1
     5     4     6   2
     6     5     6   1
     7     6     7   1
     8     7     8   2
     9     7     9   1
    10     8    11   1
    11     9    10   1
    12    10    11   2
    13    11    12   1
    14    12    13   1
    15    12    19   1
    16    13    14   1
    17    13    17   1
    18    14    15   1
    19    14    18   1
    20    15    16   1
    21    16    17   1
    22    18    19   1
    23    18    22   1
    24    19    20   1
    25    20    21   2
    26    20    24  am
    27    22    23   2
    28    22    24  am
    29    24    25   1
    30    25    26   1
    31    26    27   1
    32    27    28   1
    33    28    29   1
    34    28    30   1
    35    28    31   1
    36     3    32   1
    37     4    33   1
    38    10    34   1
    39    12    35   1
    40    13    36   1
    41    14    37   1
    42    15    38   1
    43    15    39   1
    44    16    40   1
    45    16    41   1
    46    17    42   1
    47    17    43   1
    48    18    44   1
    49    19    45   1
    50    25    46   1
    51    25    47   1
    52    26    48   1
    53    26    49   1
    54    27    50   1
    55    27    51   1
    56    29    52   1
    57    29    53   1
    58    29    54   1
    59    30    55   1
    60    30    56   1
    61    30    57   1
    62    31    58   1
    63    31    59   1
    64    31    60   1
@<TRIPOS>SUBSTRUCTURE
     1  Y5H      1

