@<TRIPOS>MOLECULE
2y5h_ligand_041
    60    64
SMALL
GAST_HUCK
****
This file was generated by PARSER (from files_GN.cpp)

@<TRIPOS>ATOM
      1 CL1       -10.0031   16.2735   21.7995 Cl          1 Y5H      -0.0522
      2 C25        -9.0751   15.3504   22.8650 C.2         1 Y5H       0.0990
      3 C24        -9.3149   15.1593   24.2286 C.2         1 Y5H      -0.0555
      4 C22        -8.3683   14.3521   24.8767 C.2         1 Y5H      -0.0588
      5 S1         -7.6422   14.4879   22.4694 S.3         1 Y5H      -0.0195
      6 C20        -7.3441   13.8697   24.0484 C.2         1 Y5H       0.0881
      7 C17        -6.2551   13.0845   24.4389 C.2         1 Y5H       0.1971
      8 N16        -5.3187   12.5792   23.6170 N.2         1 Y5H      -0.3009
      9 O10        -5.9551   12.7832   25.7234 O.3         1 Y5H      -0.2447
     10 C9         -4.8063   12.0849   25.6916 C.2         1 Y5H       0.0987
     11 C4         -4.3794   11.9786   24.3688 C.2         1 Y5H       0.0610
     12 C1         -3.1314   11.3466   23.8530 C.3         1 Y5H       0.0342
     13 N3         -2.0206   11.2939   24.8546 N.4         1 Y5H       0.2526
     14 C7         -0.7515   11.1331   24.1172 C.3         1 Y5H       0.0038
     15 C14        -0.4340    9.6235   24.1783 C.3         1 Y5H      -0.0022
     16 C15        -0.9146    9.2269   25.5804 C.3         1 Y5H      -0.0072
     17 C8         -2.0605   10.2143   25.8831 C.3         1 Y5H      -0.0298
     18 C5         -0.9732   11.7235   22.6993 C.3         1 Y5H       0.1231
     19 C2         -2.4899   11.9878   22.5803 C.3         1 Y5H       0.1287
     20 C6         -2.5127   13.4268   22.4099 C.2         1 Y5H       0.2198
     21 O13        -3.5370   14.0433   22.1566 O.2         1 Y5H      -0.3852
     22 C11        -0.3981   13.0351   22.5233 C.2         1 Y5H       0.2184
     23 O18         0.8106   13.2248   22.4767 O.2         1 Y5H      -0.3853
     24 N12        -1.3090   13.9752   22.3841 N.am        1 Y5H      -0.1843
     25 C19        -1.0571   15.3887   22.1997 C.3         1 Y5H       0.0635
     26 C21        -1.0428   15.7818   20.6899 C.3         1 Y5H       0.0123
     27 C23        -1.4481   17.2459   20.3171 C.3         1 Y5H      -0.0286
     28 N29        -2.9124   17.6717   20.1925 N.4         1 Y5H       0.2369
     29 C32        -3.6362   16.8709   19.1363 C.3         1 Y5H      -0.0418
     30 C31        -2.9539   19.1304   19.7789 C.3         1 Y5H      -0.0418
     31 C30        -3.6634   17.5526   21.4942 C.3         1 Y5H      -0.0418
     32 H1        -10.1105   15.5792   24.7157 H           1 Y5H       0.0446
     33 H2         -8.4218   14.1365   25.8749 H           1 Y5H       0.0483
     34 H3         -4.3367   11.7143   26.5164 H           1 Y5H       0.0892
     35 H4         -3.4082   10.3245   23.5779 H           1 Y5H       0.1004
     36 H5         -1.9884   12.1989   25.3318 H           1 Y5H       0.2053
     37 H6          0.0392   11.6713   24.6539 H           1 Y5H       0.0882
     38 H7          0.6324    9.4255   24.0465 H           1 Y5H       0.0323
     39 H8         -1.0011    9.0736   23.4224 H           1 Y5H       0.0323
     40 H9         -0.1053    9.3526   26.3071 H           1 Y5H       0.0319
     41 H10        -1.2559    8.1880   25.6064 H           1 Y5H       0.0319
     42 H11        -3.0148    9.6792   25.8907 H           1 Y5H       0.0815
     43 H12        -1.9138   10.6616   26.8701 H           1 Y5H       0.0815
     44 H13        -0.6153   11.0550   21.9079 H           1 Y5H       0.0632
     45 H14        -2.8951   11.5225   21.6760 H           1 Y5H       0.0648
     46 H15        -0.0928   15.6671   22.6440 H           1 Y5H       0.0578
     47 H16        -1.8069   15.9505   22.7610 H           1 Y5H       0.0578
     48 H17        -1.6415   15.0841   20.1009 H           1 Y5H       0.0340
     49 H18        -0.0102   15.6293   20.3527 H           1 Y5H       0.0340
     50 H19        -0.9715   17.4314   19.3442 H           1 Y5H       0.0816
     51 H20        -0.9346   17.9048   21.0250 H           1 Y5H       0.0816
     52 H21        -4.6433   17.2594   18.9669 H           1 Y5H       0.0778
     53 H22        -3.7514   15.8226   19.4252 H           1 Y5H       0.0778
     54 H23        -3.1035   16.8983   18.1801 H           1 Y5H       0.0778
     55 H24        -2.4402   19.7681   20.5056 H           1 Y5H       0.0778
     56 H25        -3.9803   19.4954   19.6905 H           1 Y5H       0.0778
     57 H26        -2.4733   19.2863   18.8062 H           1 Y5H       0.0778
     58 H27        -3.7895   16.5150   21.7972 H           1 Y5H       0.0778
     59 H28        -4.6725   17.9776   21.4119 H           1 Y5H       0.0778
     60 H29        -3.1459   18.0851   22.3013 H           1 Y5H       0.0778
@<TRIPOS>BOND
     1     1     2   1
     2     2     3   2
     3     2     5   1
     4     3     4   1
     5     4     6   2
     6     5     6   1
     7     6     7   1
     8     7     8   2
     9     7     9   1
    10     8    11   1
    11     9    10   1
    12    10    11   2
    13    11    12   1
    14    12    13   1
    15    12    19   1
    16    13    14   1
    17    13    17   1
    18    14    15   1
    19    14    18   1
    20    15    16   1
    21    16    17   1
    22    18    19   1
    23    18    22   1
    24    19    20   1
    25    20    21   2
    26    20    24  am
    27    22    23   2
    28    22    24  am
    29    24    25   1
    30    25    26   1
    31    26    27   1
    32    27    28   1
    33    28    29   1
    34    28    30   1
    35    28    31   1
    36     3    32   1
    37     4    33   1
    38    10    34   1
    39    12    35   1
    40    13    36   1
    41    14    37   1
    42    15    38   1
    43    15    39   1
    44    16    40   1
    45    16    41   1
    46    17    42   1
    47    17    43   1
    48    18    44   1
    49    19    45   1
    50    25    46   1
    51    25    47   1
    52    26    48   1
    53    26    49   1
    54    27    50   1
    55    27    51   1
    56    29    52   1
    57    29    53   1
    58    29    54   1
    59    30    55   1
    60    30    56   1
    61    30    57   1
    62    31    58   1
    63    31    59   1
    64    31    60   1
@<TRIPOS>SUBSTRUCTURE
     1  Y5H      1

