@<TRIPOS>MOLECULE
2y5h_ligand_016
    60    64
SMALL
GAST_HUCK
****
This file was generated by PARSER (from files_GN.cpp)

@<TRIPOS>ATOM
      1 CL1        -6.5053    5.4201   18.9696 Cl          1 Y5H      -0.0522
      2 C25        -5.8603    6.9796   18.9371 C.2         1 Y5H       0.0990
      3 C24        -5.0819    7.5429   17.9226 C.2         1 Y5H      -0.0555
      4 C22        -4.7008    8.8747   18.1576 C.2         1 Y5H      -0.0588
      5 S1         -6.0650    8.1771   20.1520 S.3         1 Y5H      -0.0195
      6 C20        -5.1619    9.4144   19.3657 C.2         1 Y5H       0.0881
      7 C17        -4.8961   10.6944   19.8707 C.2         1 Y5H       0.1971
      8 N16        -5.3602   11.1845   21.0333 N.2         1 Y5H      -0.3009
      9 O10        -4.0684   11.5928   19.2903 O.3         1 Y5H      -0.2447
     10 C9         -4.0062   12.6517   20.1211 C.2         1 Y5H       0.0987
     11 C4         -4.8083   12.3928   21.2303 C.2         1 Y5H       0.0610
     12 C1         -5.0496   13.2463   22.4250 C.3         1 Y5H       0.0342
     13 N3         -4.0550   14.3440   22.6099 N.4         1 Y5H       0.2526
     14 C7         -4.1285   14.7687   24.0208 C.3         1 Y5H       0.0038
     15 C14        -5.0747   15.9872   24.0276 C.3         1 Y5H      -0.0022
     16 C15        -4.7325   16.6948   22.7088 C.3         1 Y5H      -0.0072
     17 C8         -4.2145   15.5724   21.7829 C.3         1 Y5H      -0.0298
     18 C5         -4.6132   13.5416   24.8370 C.3         1 Y5H       0.1231
     19 C2         -5.0735   12.5038   23.7972 C.3         1 Y5H       0.1287
     20 C6         -4.1392   11.4226   24.0353 C.2         1 Y5H       0.2198
     21 O13        -4.2146   10.3538   23.4436 O.2         1 Y5H      -0.3852
     22 C11        -3.5534   12.8539   25.5328 C.2         1 Y5H       0.2184
     23 O18        -2.9778   13.3594   26.4880 O.2         1 Y5H      -0.3853
     24 N12        -3.3105   11.6546   25.0416 N.am        1 Y5H      -0.1843
     25 C19        -2.3261   10.7129   25.5379 C.3         1 Y5H       0.0635
     26 C21        -2.9437    9.6835   26.5352 C.3         1 Y5H       0.0123
     27 C23        -2.2968    8.2547   26.5265 C.3         1 Y5H      -0.0286
     28 N29        -1.2018    7.8808   27.5155 N.4         1 Y5H       0.2369
     29 C32        -0.5987    6.5537   27.0991 C.3         1 Y5H      -0.0418
     30 C31        -1.7822    7.7150   28.9008 C.3         1 Y5H      -0.0418
     31 C30        -0.1072    8.9101   27.5341 C.3         1 Y5H      -0.0418
     32 H1         -4.8163    7.0319   17.0780 H           1 Y5H       0.0446
     33 H2         -4.1355    9.4070   17.4928 H           1 Y5H       0.0483
     34 H3         -3.4524   13.4920   19.9488 H           1 Y5H       0.0892
     35 H4         -6.0446   13.6862   22.2888 H           1 Y5H       0.1004
     36 H5         -3.1244   13.9534   22.4442 H           1 Y5H       0.2053
     37 H6         -3.1328   15.0977   24.3419 H           1 Y5H       0.0882
     38 H7         -4.8994   16.6290   24.8947 H           1 Y5H       0.0323
     39 H8         -6.1229   15.6737   24.0181 H           1 Y5H       0.0323
     40 H9         -3.9466   17.4370   22.8798 H           1 Y5H       0.0319
     41 H10        -5.6089   17.1960   22.2900 H           1 Y5H       0.0319
     42 H11        -4.8971   15.4200   20.9421 H           1 Y5H       0.0815
     43 H12        -3.2373   15.8465   21.3768 H           1 Y5H       0.0815
     44 H13        -5.4175   13.7981   25.5359 H           1 Y5H       0.0632
     45 H14        -6.0878   12.1527   24.0209 H           1 Y5H       0.0648
     46 H15        -1.4982   11.2362   26.0270 H           1 Y5H       0.0578
     47 H16        -1.8864   10.1920   24.6817 H           1 Y5H       0.0578
     48 H17        -3.9952    9.5629   26.2671 H           1 Y5H       0.0340
     49 H18        -2.9262   10.1049   27.5420 H           1 Y5H       0.0340
     50 H19        -1.9360    8.0762   25.5090 H           1 Y5H       0.0816
     51 H20        -3.1213    7.5502   26.6684 H           1 Y5H       0.0816
     52 H21         0.1906    6.2349   27.7869 H           1 Y5H       0.0778
     53 H22        -0.1551    6.6117   26.0993 H           1 Y5H       0.0778
     54 H23        -1.3526    5.7620   27.0739 H           1 Y5H       0.0778
     55 H24        -2.2572    8.6335   29.2465 H           1 Y5H       0.0778
     56 H25        -1.0154    7.4460   29.6305 H           1 Y5H       0.0778
     57 H26        -2.5412    6.9273   28.9271 H           1 Y5H       0.0778
     58 H27         0.3074    9.0685   26.5362 H           1 Y5H       0.0778
     59 H28         0.7168    8.6148   28.1882 H           1 Y5H       0.0778
     60 H29        -0.4800    9.8668   27.8949 H           1 Y5H       0.0778
@<TRIPOS>BOND
     1     1     2   1
     2     2     3   2
     3     2     5   1
     4     3     4   1
     5     4     6   2
     6     5     6   1
     7     6     7   1
     8     7     8   2
     9     7     9   1
    10     8    11   1
    11     9    10   1
    12    10    11   2
    13    11    12   1
    14    12    13   1
    15    12    19   1
    16    13    14   1
    17    13    17   1
    18    14    15   1
    19    14    18   1
    20    15    16   1
    21    16    17   1
    22    18    19   1
    23    18    22   1
    24    19    20   1
    25    20    21   2
    26    20    24  am
    27    22    23   2
    28    22    24  am
    29    24    25   1
    30    25    26   1
    31    26    27   1
    32    27    28   1
    33    28    29   1
    34    28    30   1
    35    28    31   1
    36     3    32   1
    37     4    33   1
    38    10    34   1
    39    12    35   1
    40    13    36   1
    41    14    37   1
    42    15    38   1
    43    15    39   1
    44    16    40   1
    45    16    41   1
    46    17    42   1
    47    17    43   1
    48    18    44   1
    49    19    45   1
    50    25    46   1
    51    25    47   1
    52    26    48   1
    53    26    49   1
    54    27    50   1
    55    27    51   1
    56    29    52   1
    57    29    53   1
    58    29    54   1
    59    30    55   1
    60    30    56   1
    61    30    57   1
    62    31    58   1
    63    31    59   1
    64    31    60   1
@<TRIPOS>SUBSTRUCTURE
     1  Y5H      1

