@<TRIPOS>MOLECULE
2y5h_ligand_069
    60    64
SMALL
GAST_HUCK
****
This file was generated by PARSER (from files_GN.cpp)

@<TRIPOS>ATOM
      1 CL1       -13.2086    8.8313   10.7266 Cl          1 Y5H      -0.0522
      2 C25       -12.1369    9.5842   11.7894 C.2         1 Y5H       0.0990
      3 C24       -12.0402   10.9528   12.0481 C.2         1 Y5H      -0.0555
      4 C22       -11.0705   11.2950   13.0064 C.2         1 Y5H      -0.0588
      5 S1        -10.9821    8.7883   12.7846 S.3         1 Y5H      -0.0195
      6 C20       -10.3696   10.2071   13.5406 C.2         1 Y5H       0.0881
      7 C17        -9.3853   10.2590   14.5368 C.2         1 Y5H       0.1971
      8 N16        -8.6878    9.2056   14.9961 N.2         1 Y5H      -0.3009
      9 O10        -9.0350   11.3849   15.2025 O.3         1 Y5H      -0.2447
     10 C9         -8.0982   11.0198   16.0971 C.2         1 Y5H       0.0987
     11 C4         -7.8695    9.6546   15.9608 C.2         1 Y5H       0.0610
     12 C1         -6.9379    8.8172   16.7537 C.3         1 Y5H       0.0342
     13 N3         -7.2704    8.8746   18.2035 N.4         1 Y5H       0.2526
     14 C7         -6.0521    8.4976   18.9437 C.3         1 Y5H       0.0038
     15 C14        -6.2353    6.9926   19.2422 C.3         1 Y5H      -0.0022
     16 C15        -7.7455    6.8568   19.4909 C.3         1 Y5H      -0.0072
     17 C8         -8.3818    8.0034   18.6763 C.3         1 Y5H      -0.0298
     18 C5         -4.8377    8.8694   18.0471 C.3         1 Y5H       0.1231
     19 C2         -5.4210    9.1575   16.6525 C.3         1 Y5H       0.1287
     20 C6         -5.0286   10.5283   16.4328 C.2         1 Y5H       0.2198
     21 O13        -5.2874   11.1052   15.3884 O.2         1 Y5H      -0.3852
     22 C11        -4.1924   10.1209   18.3765 C.2         1 Y5H       0.2184
     23 O18        -3.5984   10.2737   19.4329 O.2         1 Y5H      -0.3853
     24 N12        -4.3105   11.0329   17.4274 N.am        1 Y5H      -0.1843
     25 C19        -3.8026   12.3936   17.4782 C.3         1 Y5H       0.0635
     26 C21        -2.9910   12.8529   16.2174 C.3         1 Y5H       0.0123
     27 C23        -1.5077   13.2932   16.4544 C.3         1 Y5H      -0.0286
     28 N29        -0.5637   13.2431   15.2539 N.4         1 Y5H       0.2369
     29 C32         0.7986   13.7479   15.6784 C.3         1 Y5H      -0.0418
     30 C31        -1.0599   14.1255   14.1357 C.3         1 Y5H      -0.0418
     31 C30        -0.3985   11.8264   14.7462 C.3         1 Y5H      -0.0418
     32 H1        -12.6297   11.6497   11.5877 H           1 Y5H       0.0446
     33 H2        -10.8992   12.2623   13.2895 H           1 Y5H       0.0483
     34 H3         -7.6365   11.6475   16.7576 H           1 Y5H       0.0892
     35 H4         -7.0385    7.7846   16.3995 H           1 Y5H       0.1004
     36 H5         -7.4927    9.8435   18.4436 H           1 Y5H       0.2053
     37 H6         -6.0315    9.0440   19.8933 H           1 Y5H       0.0882
     38 H7         -5.6486    6.6858   20.1108 H           1 Y5H       0.0323
     39 H8         -5.9465    6.3838   18.3804 H           1 Y5H       0.0323
     40 H9         -7.9632    6.9843   20.5561 H           1 Y5H       0.0319
     41 H10        -8.1121    5.8770   19.1714 H           1 Y5H       0.0319
     42 H11        -8.9812    7.6011   17.8529 H           1 Y5H       0.0815
     43 H12        -9.0474    8.5916   19.3131 H           1 Y5H       0.0815
     44 H13        -4.0939    8.0670   18.0154 H           1 Y5H       0.0632
     45 H14        -4.9342    8.5395   15.8880 H           1 Y5H       0.0648
     46 H15        -3.1952   12.5547   18.3738 H           1 Y5H       0.0578
     47 H16        -4.6726   13.0513   17.5875 H           1 Y5H       0.0578
     48 H17        -3.5186   13.6985   15.7690 H           1 Y5H       0.0340
     49 H18        -2.9989   12.0508   15.4861 H           1 Y5H       0.0340
     50 H19        -1.0926   12.6685   17.2514 H           1 Y5H       0.0816
     51 H20        -1.5399   14.3135   16.8606 H           1 Y5H       0.0816
     52 H21         1.5145   13.7239   14.8486 H           1 Y5H       0.0778
     53 H22         1.2163   13.1415   16.4887 H           1 Y5H       0.0778
     54 H23         0.7527   14.7842   16.0318 H           1 Y5H       0.0778
     55 H24        -2.0285   13.7910   13.7586 H           1 Y5H       0.0778
     56 H25        -0.3707   14.1184   13.2879 H           1 Y5H       0.0778
     57 H26        -1.1756   15.1612   14.4706 H           1 Y5H       0.0778
     58 H27        -0.1296   11.1440   15.5577 H           1 Y5H       0.0778
     59 H28         0.3938   11.7609   13.9928 H           1 Y5H       0.0778
     60 H29        -1.3109   11.4413   14.2841 H           1 Y5H       0.0778
@<TRIPOS>BOND
     1     1     2   1
     2     2     3   2
     3     2     5   1
     4     3     4   1
     5     4     6   2
     6     5     6   1
     7     6     7   1
     8     7     8   2
     9     7     9   1
    10     8    11   1
    11     9    10   1
    12    10    11   2
    13    11    12   1
    14    12    13   1
    15    12    19   1
    16    13    14   1
    17    13    17   1
    18    14    15   1
    19    14    18   1
    20    15    16   1
    21    16    17   1
    22    18    19   1
    23    18    22   1
    24    19    20   1
    25    20    21   2
    26    20    24  am
    27    22    23   2
    28    22    24  am
    29    24    25   1
    30    25    26   1
    31    26    27   1
    32    27    28   1
    33    28    29   1
    34    28    30   1
    35    28    31   1
    36     3    32   1
    37     4    33   1
    38    10    34   1
    39    12    35   1
    40    13    36   1
    41    14    37   1
    42    15    38   1
    43    15    39   1
    44    16    40   1
    45    16    41   1
    46    17    42   1
    47    17    43   1
    48    18    44   1
    49    19    45   1
    50    25    46   1
    51    25    47   1
    52    26    48   1
    53    26    49   1
    54    27    50   1
    55    27    51   1
    56    29    52   1
    57    29    53   1
    58    29    54   1
    59    30    55   1
    60    30    56   1
    61    30    57   1
    62    31    58   1
    63    31    59   1
    64    31    60   1
@<TRIPOS>SUBSTRUCTURE
     1  Y5H      1

