@<TRIPOS>MOLECULE
2y5h_ligand_039
    60    64
SMALL
GAST_HUCK
****
This file was generated by PARSER (from files_GN.cpp)

@<TRIPOS>ATOM
      1 CL1         5.7819   20.6262   22.4985 Cl          1 Y5H      -0.0522
      2 C25         4.8228   19.2654   22.7777 C.2         1 Y5H       0.0990
      3 C24         4.7715   18.4977   23.9463 C.2         1 Y5H      -0.0555
      4 C22         3.8591   17.4294   23.8940 C.2         1 Y5H      -0.0588
      5 S1          3.7166   18.5821   21.6591 S.3         1 Y5H      -0.0195
      6 C20         3.1698   17.3052   22.6805 C.2         1 Y5H       0.0881
      7 C17         2.1876   16.3674   22.3457 C.2         1 Y5H       0.1971
      8 N16         1.6979   16.1564   21.1115 N.2         1 Y5H      -0.3009
      9 O10         1.5486   15.5678   23.2364 O.3         1 Y5H      -0.2447
     10 C9          0.6512   14.8487   22.5348 C.2         1 Y5H       0.0987
     11 C4          0.7670   15.1886   21.1896 C.2         1 Y5H       0.0610
     12 C1         -0.0007   14.6710   20.0275 C.3         1 Y5H       0.0342
     13 N3         -1.3385   15.3199   19.9989 N.4         1 Y5H       0.2526
     14 C7         -2.3548   14.3419   20.4145 C.3         1 Y5H       0.0038
     15 C14        -3.6906   14.7932   19.7716 C.3         1 Y5H      -0.0022
     16 C15        -3.3167   15.9980   18.8885 C.3         1 Y5H      -0.0072
     17 C8         -1.7999   15.8652   18.7040 C.3         1 Y5H      -0.0298
     18 C5         -1.7918   12.9643   19.9681 C.3         1 Y5H       0.1231
     19 C2         -0.2609   13.1295   19.9507 C.3         1 Y5H       0.1287
     20 C6          0.1395   12.2749   21.0456 C.2         1 Y5H       0.2198
     21 O13         1.3206   12.1400   21.3434 O.2         1 Y5H      -0.3852
     22 C11        -2.0014   11.9365   20.9585 C.2         1 Y5H       0.2184
     23 O18        -3.1251   11.5071   21.2079 O.2         1 Y5H      -0.3853
     24 N12        -0.8846   11.6417   21.6144 N.am        1 Y5H      -0.1843
     25 C19        -0.7486   10.7653   22.7620 C.3         1 Y5H       0.0635
     26 C21        -1.9324   10.6859   23.7695 C.3         1 Y5H       0.0123
     27 C23        -2.3165   12.0570   24.4136 C.3         1 Y5H      -0.0286
     28 N29        -3.7773   12.2931   24.7841 N.4         1 Y5H       0.2369
     29 C32        -4.6341   12.3284   23.5403 C.3         1 Y5H      -0.0418
     30 C31        -3.8969   13.6269   25.4854 C.3         1 Y5H      -0.0418
     31 C30        -4.2896   11.2278   25.7206 C.3         1 Y5H      -0.0418
     32 H1          5.3414   18.7006   24.7666 H           1 Y5H       0.0446
     33 H2          3.7221   16.7894   24.6817 H           1 Y5H       0.0483
     34 H3          0.0038   14.1674   22.9376 H           1 Y5H       0.0892
     35 H4          0.5635   14.9569   19.1339 H           1 Y5H       0.1004
     36 H5         -1.3429   16.0891   20.6751 H           1 Y5H       0.2053
     37 H6         -2.4389   14.4055   21.5070 H           1 Y5H       0.0882
     38 H7         -4.4142   15.0989   20.5340 H           1 Y5H       0.0323
     39 H8         -4.1423   13.9979   19.1708 H           1 Y5H       0.0323
     40 H9         -3.5423   16.9323   19.4129 H           1 Y5H       0.0319
     41 H10        -3.8421   15.9886   17.9297 H           1 Y5H       0.0319
     42 H11        -1.5835   15.1791   17.8746 H           1 Y5H       0.0815
     43 H12        -1.3292   16.8314   18.5046 H           1 Y5H       0.0815
     44 H13        -2.1559   12.6604   18.9797 H           1 Y5H       0.0632
     45 H14         0.1476   12.7208   19.0190 H           1 Y5H       0.0648
     46 H15         0.1268   11.0590   23.3511 H           1 Y5H       0.0578
     47 H16        -0.5533    9.7575   22.3872 H           1 Y5H       0.0578
     48 H17        -1.6462    9.9951   24.5727 H           1 Y5H       0.0340
     49 H18        -2.7879   10.2299   23.2703 H           1 Y5H       0.0340
     50 H19        -2.0011   12.8616   23.7435 H           1 Y5H       0.0816
     51 H20        -1.6953   12.1574   25.3099 H           1 Y5H       0.0816
     52 H21        -5.6692   12.5868   23.7874 H           1 Y5H       0.0778
     53 H22        -4.6600   11.3668   23.0279 H           1 Y5H       0.0778
     54 H23        -4.2737   13.0720   22.8259 H           1 Y5H       0.0778
     55 H24        -3.3122   13.6534   26.4123 H           1 Y5H       0.0778
     56 H25        -4.9373   13.8490   25.7586 H           1 Y5H       0.0778
     57 H26        -3.5451   14.4472   24.8539 H           1 Y5H       0.0778
     58 H27        -4.2457   10.2349   25.2737 H           1 Y5H       0.0778
     59 H28        -5.3360   11.4112   25.9866 H           1 Y5H       0.0778
     60 H29        -3.7114   11.1980   26.6499 H           1 Y5H       0.0778
@<TRIPOS>BOND
     1     1     2   1
     2     2     3   2
     3     2     5   1
     4     3     4   1
     5     4     6   2
     6     5     6   1
     7     6     7   1
     8     7     8   2
     9     7     9   1
    10     8    11   1
    11     9    10   1
    12    10    11   2
    13    11    12   1
    14    12    13   1
    15    12    19   1
    16    13    14   1
    17    13    17   1
    18    14    15   1
    19    14    18   1
    20    15    16   1
    21    16    17   1
    22    18    19   1
    23    18    22   1
    24    19    20   1
    25    20    21   2
    26    20    24  am
    27    22    23   2
    28    22    24  am
    29    24    25   1
    30    25    26   1
    31    26    27   1
    32    27    28   1
    33    28    29   1
    34    28    30   1
    35    28    31   1
    36     3    32   1
    37     4    33   1
    38    10    34   1
    39    12    35   1
    40    13    36   1
    41    14    37   1
    42    15    38   1
    43    15    39   1
    44    16    40   1
    45    16    41   1
    46    17    42   1
    47    17    43   1
    48    18    44   1
    49    19    45   1
    50    25    46   1
    51    25    47   1
    52    26    48   1
    53    26    49   1
    54    27    50   1
    55    27    51   1
    56    29    52   1
    57    29    53   1
    58    29    54   1
    59    30    55   1
    60    30    56   1
    61    30    57   1
    62    31    58   1
    63    31    59   1
    64    31    60   1
@<TRIPOS>SUBSTRUCTURE
     1  Y5H      1

