@<TRIPOS>MOLECULE
2y5h_ligand_034
    60    64
SMALL
GAST_HUCK
****
This file was generated by PARSER (from files_GN.cpp)

@<TRIPOS>ATOM
      1 CL1         0.6588    8.7090   24.3791 Cl          1 Y5H      -0.0522
      2 C25        -0.6601    9.6590   24.8236 C.2         1 Y5H       0.0990
      3 C24        -0.9373   10.1811   26.0901 C.2         1 Y5H      -0.0555
      4 C22        -2.1199   10.9380   26.1595 C.2         1 Y5H      -0.0588
      5 S1         -1.9227   10.1601   23.7730 S.3         1 Y5H      -0.0195
      6 C20        -2.8192   11.0394   24.9499 C.2         1 Y5H       0.0881
      7 C17        -4.0249   11.7145   24.7205 C.2         1 Y5H       0.1971
      8 N16        -4.6140   11.8202   23.5190 N.2         1 Y5H      -0.3009
      9 O10        -4.7604   12.3596   25.6541 O.3         1 Y5H      -0.2447
     10 C9         -5.8338   12.8609   25.0070 C.2         1 Y5H       0.0987
     11 C4         -5.7626   12.4990   23.6617 C.2         1 Y5H       0.0610
     12 C1         -6.6745   12.9037   22.5463 C.3         1 Y5H       0.0342
     13 N3         -8.0901   12.9746   23.0159 N.4         1 Y5H       0.2526
     14 C7         -8.7131   11.6589   22.7673 C.3         1 Y5H       0.0038
     15 C14       -10.2371   11.9154   22.6383 C.3         1 Y5H      -0.0022
     16 C15       -10.3934   13.4486   22.6448 C.3         1 Y5H      -0.0072
     17 C8         -8.9762   13.9861   22.3939 C.3         1 Y5H      -0.0298
     18 C5         -8.0087   11.1097   21.4970 C.3         1 Y5H       0.1231
     19 C2         -6.7556   11.9776   21.2848 C.3         1 Y5H       0.1287
     20 C6         -5.7443   10.9790   21.0271 C.2         1 Y5H       0.2198
     21 O13        -4.6087   11.2728   20.6729 O.2         1 Y5H      -0.3852
     22 C11        -7.4498    9.7901   21.6053 C.2         1 Y5H       0.2184
     23 O18        -8.1476    8.8221   21.8777 O.2         1 Y5H      -0.3853
     24 N12        -6.1703    9.7513   21.2675 N.am        1 Y5H      -0.1843
     25 C19        -5.3645    8.5507   21.2122 C.3         1 Y5H       0.0635
     26 C21        -5.2733    7.8757   19.8114 C.3         1 Y5H       0.0123
     27 C23        -6.6290    7.7581   19.0369 C.3         1 Y5H      -0.0286
     28 N29        -6.8804    6.5539   18.1379 N.4         1 Y5H       0.2369
     29 C32        -5.7352    6.3306   17.1832 C.3         1 Y5H      -0.0418
     30 C31        -8.1316    6.8081   17.3267 C.3         1 Y5H      -0.0418
     31 C30        -7.1091    5.3031   18.9580 C.3         1 Y5H      -0.0418
     32 H1         -0.3395   10.0213   26.9017 H           1 Y5H       0.0446
     33 H2         -2.4423   11.3758   27.0253 H           1 Y5H       0.0483
     34 H3         -6.5596   13.4276   25.4455 H           1 Y5H       0.0892
     35 H4         -6.3305   13.9000   22.2391 H           1 Y5H       0.1004
     36 H5         -8.1174   13.1567   24.0207 H           1 Y5H       0.2053
     37 H6         -8.5208   11.0127   23.6305 H           1 Y5H       0.0882
     38 H7        -10.7762   11.4769   23.4837 H           1 Y5H       0.0323
     39 H8        -10.6478   11.4924   21.7173 H           1 Y5H       0.0323
     40 H9        -10.7508   13.7850   23.6244 H           1 Y5H       0.0319
     41 H10       -11.0955   13.7885   21.8760 H           1 Y5H       0.0319
     42 H11        -8.8005   14.0808   21.3182 H           1 Y5H       0.0815
     43 H12        -8.8399   14.9625   22.8649 H           1 Y5H       0.0815
     44 H13        -8.6535   11.1488   20.6124 H           1 Y5H       0.0632
     45 H14        -6.8898   12.5919   20.3887 H           1 Y5H       0.0648
     46 H15        -5.7532    7.8127   21.9194 H           1 Y5H       0.0578
     47 H16        -4.3517    8.7843   21.5493 H           1 Y5H       0.0578
     48 H17        -4.8514    6.8844   19.9654 H           1 Y5H       0.0340
     49 H18        -4.5585    8.4290   19.1972 H           1 Y5H       0.0340
     50 H19        -6.7169    8.6768   18.4478 H           1 Y5H       0.0816
     51 H20        -7.4410    7.8021   19.7687 H           1 Y5H       0.0816
     52 H21        -5.9571    5.5265   16.4748 H           1 Y5H       0.0778
     53 H22        -4.8183    6.0518   17.7079 H           1 Y5H       0.0778
     54 H23        -5.5245    7.2349   16.6030 H           1 Y5H       0.0778
     55 H24        -8.9898    7.0180   17.9728 H           1 Y5H       0.0778
     56 H25        -8.3930    5.9472   16.7040 H           1 Y5H       0.0778
     57 H26        -8.0090    7.6639   16.6569 H           1 Y5H       0.0778
     58 H27        -6.2343    5.0392   19.5511 H           1 Y5H       0.0778
     59 H28        -7.3290    4.4419   18.3196 H           1 Y5H       0.0778
     60 H29        -7.9497    5.4224   19.6473 H           1 Y5H       0.0778
@<TRIPOS>BOND
     1     1     2   1
     2     2     3   2
     3     2     5   1
     4     3     4   1
     5     4     6   2
     6     5     6   1
     7     6     7   1
     8     7     8   2
     9     7     9   1
    10     8    11   1
    11     9    10   1
    12    10    11   2
    13    11    12   1
    14    12    13   1
    15    12    19   1
    16    13    14   1
    17    13    17   1
    18    14    15   1
    19    14    18   1
    20    15    16   1
    21    16    17   1
    22    18    19   1
    23    18    22   1
    24    19    20   1
    25    20    21   2
    26    20    24  am
    27    22    23   2
    28    22    24  am
    29    24    25   1
    30    25    26   1
    31    26    27   1
    32    27    28   1
    33    28    29   1
    34    28    30   1
    35    28    31   1
    36     3    32   1
    37     4    33   1
    38    10    34   1
    39    12    35   1
    40    13    36   1
    41    14    37   1
    42    15    38   1
    43    15    39   1
    44    16    40   1
    45    16    41   1
    46    17    42   1
    47    17    43   1
    48    18    44   1
    49    19    45   1
    50    25    46   1
    51    25    47   1
    52    26    48   1
    53    26    49   1
    54    27    50   1
    55    27    51   1
    56    29    52   1
    57    29    53   1
    58    29    54   1
    59    30    55   1
    60    30    56   1
    61    30    57   1
    62    31    58   1
    63    31    59   1
    64    31    60   1
@<TRIPOS>SUBSTRUCTURE
     1  Y5H      1

