@<TRIPOS>MOLECULE
2y5h_ligand_077
    60    64
SMALL
GAST_HUCK
****
This file was generated by PARSER (from files_GN.cpp)

@<TRIPOS>ATOM
      1 CL1        -7.3100    4.2422   18.3538 Cl          1 Y5H      -0.0522
      2 C25        -6.4173    5.6461   18.6487 C.2         1 Y5H       0.0990
      3 C24        -5.1869    5.9905   18.0833 C.2         1 Y5H      -0.0555
      4 C22        -4.6755    7.2257   18.5283 C.2         1 Y5H      -0.0588
      5 S1         -6.8640    6.9067   19.7211 S.3         1 Y5H      -0.0195
      6 C20        -5.4792    7.8949   19.4572 C.2         1 Y5H       0.0881
      7 C17        -5.2114    9.1216   20.0724 C.2         1 Y5H       0.1971
      8 N16        -5.9867    9.6903   21.0159 N.2         1 Y5H      -0.3009
      9 O10        -4.1199    9.8883   19.8424 O.3         1 Y5H      -0.2447
     10 C9         -4.2195   10.9557   20.6579 C.2         1 Y5H       0.0987
     11 C4         -5.3930   10.8327   21.4015 C.2         1 Y5H       0.0610
     12 C1         -5.9223   11.7587   22.4396 C.3         1 Y5H       0.0342
     13 N3         -6.3766   13.0232   21.8051 N.4         1 Y5H       0.2526
     14 C7         -5.3620   14.0688   22.0432 C.3         1 Y5H       0.0038
     15 C14        -6.1204   15.4187   22.0166 C.3         1 Y5H      -0.0022
     16 C15        -7.6081   15.0476   21.8724 C.3         1 Y5H      -0.0072
     17 C8         -7.6728   13.5687   22.2656 C.3         1 Y5H      -0.0298
     18 C5         -4.6625   13.6844   23.3800 C.3         1 Y5H       0.1231
     19 C2         -4.9423   12.1876   23.5768 C.3         1 Y5H       0.1287
     20 C6         -3.6117   11.6325   23.6066 C.2         1 Y5H       0.2198
     21 O13        -3.4545   10.4179   23.6702 O.2         1 Y5H      -0.3852
     22 C11        -3.2217   13.7357   23.3733 C.2         1 Y5H       0.2184
     23 O18        -2.6195   14.7940   23.2236 O.2         1 Y5H      -0.3853
     24 N12        -2.6571   12.5451   23.5209 N.am        1 Y5H      -0.1843
     25 C19        -1.2254   12.3167   23.4143 C.3         1 Y5H       0.0635
     26 C21        -0.6720   10.9070   23.7694 C.3         1 Y5H       0.0123
     27 C23        -0.3976   10.6800   25.2918 C.3         1 Y5H      -0.0286
     28 N29        -0.3642    9.2487   25.8162 N.4         1 Y5H       0.2369
     29 C32         0.3965    9.2071   27.1226 C.3         1 Y5H      -0.0418
     30 C31         0.3175    8.3073   24.8525 C.3         1 Y5H      -0.0418
     31 C30        -1.7687    8.7605   26.0825 C.3         1 Y5H      -0.0418
     32 H1         -4.6993    5.4026   17.4079 H           1 Y5H       0.0446
     33 H2         -3.7891    7.5996   18.1945 H           1 Y5H       0.0483
     34 H3         -3.5414   11.7170   20.7232 H           1 Y5H       0.0892
     35 H4         -6.7707   11.2426   22.9032 H           1 Y5H       0.1004
     36 H5         -6.4573   12.8770   20.7961 H           1 Y5H       0.2053
     37 H6         -4.6532   14.0434   21.2102 H           1 Y5H       0.0882
     38 H7         -5.8062   16.0289   21.1658 H           1 Y5H       0.0323
     39 H8         -5.9482   15.9930   22.9291 H           1 Y5H       0.0323
     40 H9         -7.9271   15.1647   20.8313 H           1 Y5H       0.0319
     41 H10        -8.2467   15.6636   22.5117 H           1 Y5H       0.0319
     42 H11        -7.7925   13.4765   23.3497 H           1 Y5H       0.0815
     43 H12        -8.5027   13.0641   21.7662 H           1 Y5H       0.0815
     44 H13        -5.0461   14.2563   24.2281 H           1 Y5H       0.0632
     45 H14        -5.4007   12.0125   24.5532 H           1 Y5H       0.0648
     46 H15        -0.6801   13.0380   24.0368 H           1 Y5H       0.0578
     47 H16        -0.9587   12.5320   22.3760 H           1 Y5H       0.0578
     48 H17         0.2637   10.7622   23.2236 H           1 Y5H       0.0340
     49 H18        -1.3470   10.1529   23.3746 H           1 Y5H       0.0340
     50 H19        -1.1331   11.2528   25.8673 H           1 Y5H       0.0816
     51 H20         0.5625   11.1675   25.4988 H           1 Y5H       0.0816
     52 H21         0.4188    8.2008   27.5589 H           1 Y5H       0.0778
     53 H22        -0.0628    9.8692   27.8589 H           1 Y5H       0.0778
     54 H23         1.4371    9.5244   26.9882 H           1 Y5H       0.0778
     55 H24        -0.2335    8.2221   23.9171 H           1 Y5H       0.0778
     56 H25         0.3980    7.2909   25.2561 H           1 Y5H       0.0778
     57 H26         1.3255    8.6598   24.6098 H           1 Y5H       0.0778
     58 H27        -2.2971    9.4089   26.7935 H           1 Y5H       0.0778
     59 H28        -1.7865    7.7446   26.4914 H           1 Y5H       0.0778
     60 H29        -2.3507    8.7506   25.1610 H           1 Y5H       0.0778
@<TRIPOS>BOND
     1     1     2   1
     2     2     3   2
     3     2     5   1
     4     3     4   1
     5     4     6   2
     6     5     6   1
     7     6     7   1
     8     7     8   2
     9     7     9   1
    10     8    11   1
    11     9    10   1
    12    10    11   2
    13    11    12   1
    14    12    13   1
    15    12    19   1
    16    13    14   1
    17    13    17   1
    18    14    15   1
    19    14    18   1
    20    15    16   1
    21    16    17   1
    22    18    19   1
    23    18    22   1
    24    19    20   1
    25    20    21   2
    26    20    24  am
    27    22    23   2
    28    22    24  am
    29    24    25   1
    30    25    26   1
    31    26    27   1
    32    27    28   1
    33    28    29   1
    34    28    30   1
    35    28    31   1
    36     3    32   1
    37     4    33   1
    38    10    34   1
    39    12    35   1
    40    13    36   1
    41    14    37   1
    42    15    38   1
    43    15    39   1
    44    16    40   1
    45    16    41   1
    46    17    42   1
    47    17    43   1
    48    18    44   1
    49    19    45   1
    50    25    46   1
    51    25    47   1
    52    26    48   1
    53    26    49   1
    54    27    50   1
    55    27    51   1
    56    29    52   1
    57    29    53   1
    58    29    54   1
    59    30    55   1
    60    30    56   1
    61    30    57   1
    62    31    58   1
    63    31    59   1
    64    31    60   1
@<TRIPOS>SUBSTRUCTURE
     1  Y5H      1

