@<TRIPOS>MOLECULE
2y5h_ligand_089
    60    64
SMALL
GAST_HUCK
****
This file was generated by PARSER (from files_GN.cpp)

@<TRIPOS>ATOM
      1 CL1         0.4805   18.5876   16.2194 Cl          1 Y5H      -0.0522
      2 C25        -0.0085   17.3739   17.2869 C.2         1 Y5H       0.0990
      3 C24         0.7924   16.6989   18.2083 C.2         1 Y5H      -0.0555
      4 C22         0.1097   15.7307   18.9680 C.2         1 Y5H      -0.0588
      5 S1         -1.6037   16.7502   17.4325 S.3         1 Y5H      -0.0195
      6 C20        -1.2552   15.6126   18.6759 C.2         1 Y5H       0.0881
      7 C17        -2.1716   14.7374   19.2762 C.2         1 Y5H       0.1971
      8 N16        -3.4911   14.6997   19.0231 N.2         1 Y5H      -0.3009
      9 O10        -1.8479   13.8072   20.2059 O.3         1 Y5H      -0.2447
     10 C9         -2.9923   13.1777   20.5331 C.2         1 Y5H       0.0987
     11 C4         -4.0263   13.7335   19.7886 C.2         1 Y5H       0.0610
     12 C1         -5.4653   13.3786   19.8360 C.3         1 Y5H       0.0342
     13 N3         -5.9834   13.3978   21.2359 N.4         1 Y5H       0.2526
     14 C7         -7.1854   12.5470   21.2620 C.3         1 Y5H       0.0038
     15 C14        -8.3653   13.5273   21.0865 C.3         1 Y5H      -0.0022
     16 C15        -7.9115   14.7437   21.9051 C.3         1 Y5H      -0.0072
     17 C8         -6.3690   14.7165   21.8116 C.3         1 Y5H      -0.0298
     18 C5         -7.0099   11.4906   20.1404 C.3         1 Y5H       0.1231
     19 C2         -5.8728   11.9972   19.2342 C.3         1 Y5H       0.1287
     20 C6         -4.9404   10.8859   19.2698 C.2         1 Y5H       0.2198
     21 O13        -3.9279   10.8659   18.5883 O.2         1 Y5H      -0.3852
     22 C11        -6.5047   10.2169   20.5918 C.2         1 Y5H       0.2184
     23 O18        -7.1464    9.5097   21.3532 O.2         1 Y5H      -0.3853
     24 N12        -5.3533    9.8882   20.0308 N.am        1 Y5H      -0.1843
     25 C19        -4.6794    8.6144   20.1986 C.3         1 Y5H       0.0635
     26 C21        -4.9750    7.5601   19.0885 C.3         1 Y5H       0.0123
     27 C23        -6.4550    7.5179   18.5823 C.3         1 Y5H      -0.0286
     28 N29        -6.9889    6.2413   17.9451 N.4         1 Y5H       0.2369
     29 C32        -8.3256    6.5384   17.3022 C.3         1 Y5H      -0.0418
     30 C31        -7.2032    5.1674   18.9903 C.3         1 Y5H      -0.0418
     31 C30        -6.0616    5.7178   16.8771 C.3         1 Y5H      -0.0418
     32 H1          1.7885   16.8914   18.3259 H           1 Y5H       0.0446
     33 H2          0.5779   15.1665   19.6802 H           1 Y5H       0.0483
     34 H3         -3.0771   12.4246   21.2181 H           1 Y5H       0.0892
     35 H4         -6.0046   14.1361   19.2509 H           1 Y5H       0.1004
     36 H5         -5.2839   12.9691   21.8451 H           1 Y5H       0.2053
     37 H6         -7.2706   12.0706   22.2466 H           1 Y5H       0.0882
     38 H7         -9.3018   13.1076   21.4616 H           1 Y5H       0.0323
     39 H8         -8.4893   13.8088   20.0367 H           1 Y5H       0.0323
     40 H9         -8.2295   14.6277   22.9463 H           1 Y5H       0.0319
     41 H10        -8.3320   15.6714   21.5078 H           1 Y5H       0.0319
     42 H11        -6.0074   15.5565   21.2112 H           1 Y5H       0.0815
     43 H12        -5.9372   14.8088   22.8109 H           1 Y5H       0.0815
     44 H13        -7.9378   11.3310   19.5799 H           1 Y5H       0.0632
     45 H14        -6.2297   12.1218   18.2044 H           1 Y5H       0.0648
     46 H15        -4.9543    8.1725   21.1627 H           1 Y5H       0.0578
     47 H16        -3.5964    8.7738   20.2418 H           1 Y5H       0.0578
     48 H17        -4.6893    6.5853   19.4906 H           1 Y5H       0.0340
     49 H18        -4.3114    7.7539   18.2389 H           1 Y5H       0.0340
     50 H19        -6.5442    8.3410   17.8655 H           1 Y5H       0.0816
     51 H20        -7.1061    7.7824   19.4208 H           1 Y5H       0.0816
     52 H21        -8.7838    5.6360   16.8825 H           1 Y5H       0.0778
     53 H22        -8.2242    7.2593   16.4834 H           1 Y5H       0.0778
     54 H23        -9.0306    6.9604   18.0253 H           1 Y5H       0.0778
     55 H24        -6.2681    4.8762   19.4720 H           1 Y5H       0.0778
     56 H25        -7.6334    4.2607   18.5513 H           1 Y5H       0.0778
     57 H26        -7.8884    5.5048   19.7745 H           1 Y5H       0.0778
     58 H27        -5.8520    6.4860   16.1247 H           1 Y5H       0.0778
     59 H28        -6.5060    4.8583   16.3630 H           1 Y5H       0.0778
     60 H29        -5.1059    5.3879   17.2966 H           1 Y5H       0.0778
@<TRIPOS>BOND
     1     1     2   1
     2     2     3   2
     3     2     5   1
     4     3     4   1
     5     4     6   2
     6     5     6   1
     7     6     7   1
     8     7     8   2
     9     7     9   1
    10     8    11   1
    11     9    10   1
    12    10    11   2
    13    11    12   1
    14    12    13   1
    15    12    19   1
    16    13    14   1
    17    13    17   1
    18    14    15   1
    19    14    18   1
    20    15    16   1
    21    16    17   1
    22    18    19   1
    23    18    22   1
    24    19    20   1
    25    20    21   2
    26    20    24  am
    27    22    23   2
    28    22    24  am
    29    24    25   1
    30    25    26   1
    31    26    27   1
    32    27    28   1
    33    28    29   1
    34    28    30   1
    35    28    31   1
    36     3    32   1
    37     4    33   1
    38    10    34   1
    39    12    35   1
    40    13    36   1
    41    14    37   1
    42    15    38   1
    43    15    39   1
    44    16    40   1
    45    16    41   1
    46    17    42   1
    47    17    43   1
    48    18    44   1
    49    19    45   1
    50    25    46   1
    51    25    47   1
    52    26    48   1
    53    26    49   1
    54    27    50   1
    55    27    51   1
    56    29    52   1
    57    29    53   1
    58    29    54   1
    59    30    55   1
    60    30    56   1
    61    30    57   1
    62    31    58   1
    63    31    59   1
    64    31    60   1
@<TRIPOS>SUBSTRUCTURE
     1  Y5H      1

