@<TRIPOS>MOLECULE
2y5h_ligand_019
    60    64
SMALL
GAST_HUCK
****
This file was generated by PARSER (from files_GN.cpp)

@<TRIPOS>ATOM
      1 CL1         1.3966   23.0585   19.3676 Cl          1 Y5H      -0.0522
      2 C25         1.4368   21.5130   20.0431 C.2         1 Y5H       0.0990
      3 C24         1.9343   21.1578   21.2999 C.2         1 Y5H      -0.0555
      4 C22         1.8037   19.7955   21.6058 C.2         1 Y5H      -0.0588
      5 S1          0.8330   20.0822   19.3041 S.3         1 Y5H      -0.0195
      6 C20         1.2041   19.0220   20.6066 C.2         1 Y5H       0.0881
      7 C17         0.9056   17.6571   20.6874 C.2         1 Y5H       0.1971
      8 N16         0.4946   16.8713   19.6770 N.2         1 Y5H      -0.3009
      9 O10         0.9424   16.9500   21.8371 O.3         1 Y5H      -0.2447
     10 C9          0.5418   15.7007   21.5325 C.2         1 Y5H       0.0987
     11 C4          0.2866   15.6334   20.1629 C.2         1 Y5H       0.0610
     12 C1         -0.1779   14.5116   19.2872 C.3         1 Y5H       0.0342
     13 N3         -1.4982   14.8873   18.7144 N.4         1 Y5H       0.2526
     14 C7         -2.5554   14.1626   19.4471 C.3         1 Y5H       0.0038
     15 C14        -3.7254   13.9489   18.4483 C.3         1 Y5H      -0.0022
     16 C15        -3.2602   14.6252   17.1492 C.3         1 Y5H      -0.0072
     17 C8         -1.7279   14.6334   17.2744 C.3         1 Y5H      -0.0298
     18 C5         -1.8930   12.8691   19.9991 C.3         1 Y5H       0.1231
     19 C2         -0.3738   13.0759   19.8674 C.3         1 Y5H       0.1287
     20 C6          0.0934   12.7825   21.1976 C.2         1 Y5H       0.2198
     21 O13         1.2818   12.7256   21.4689 O.2         1 Y5H      -0.3852
     22 C11        -2.0537   12.6463   21.4104 C.2         1 Y5H       0.2184
     23 O18        -3.1588   12.4782   21.9156 O.2         1 Y5H      -0.3853
     24 N12        -0.9047   12.6130   22.0550 N.am        1 Y5H      -0.1843
     25 C19        -0.7610   12.4450   23.4795 C.3         1 Y5H       0.0635
     26 C21        -0.6999   10.9460   23.8617 C.3         1 Y5H       0.0123
     27 C23        -0.4121   10.7052   25.3791 C.3         1 Y5H      -0.0286
     28 N29        -0.3900    9.2647   25.8727 N.4         1 Y5H       0.2369
     29 C32        -1.7920    8.7864   26.1639 C.3         1 Y5H      -0.0418
     30 C31         0.4001    9.1994   27.1622 C.3         1 Y5H      -0.0418
     31 C30         0.2535    8.3335   24.8814 C.3         1 Y5H      -0.0418
     32 H1          2.3497   21.8314   21.9469 H           1 Y5H       0.0446
     33 H2          2.1235   19.4010   22.4971 H           1 Y5H       0.0483
     34 H3          0.4436   14.9608   22.2251 H           1 Y5H       0.0892
     35 H4          0.5641   14.4401   18.4907 H           1 Y5H       0.1004
     36 H5         -1.6514   15.8896   18.8581 H           1 Y5H       0.2053
     37 H6         -2.8881   14.8091   20.2682 H           1 Y5H       0.0882
     38 H7         -4.6476   14.4076   18.8152 H           1 Y5H       0.0323
     39 H8         -3.9214   12.8901   18.2612 H           1 Y5H       0.0323
     40 H9         -3.6348   15.6510   17.1035 H           1 Y5H       0.0319
     41 H10        -3.5920   14.0798   16.2605 H           1 Y5H       0.0319
     42 H11        -1.3211   13.6652   16.9574 H           1 Y5H       0.0815
     43 H12        -1.2888   15.4262   16.6631 H           1 Y5H       0.0815
     44 H13        -2.2000   11.9708   19.4516 H           1 Y5H       0.0632
     45 H14         0.0374   12.3335   19.1743 H           1 Y5H       0.0648
     46 H15        -1.5991   12.9168   24.0016 H           1 Y5H       0.0578
     47 H16         0.1430   12.9485   23.8297 H           1 Y5H       0.0578
     48 H17         0.0971   10.4864   23.2725 H           1 Y5H       0.0340
     49 H18        -1.6436   10.4743   23.5863 H           1 Y5H       0.0340
     50 H19        -1.1512   11.2747   25.9474 H           1 Y5H       0.0816
     51 H20         0.5548   11.1789   25.5801 H           1 Y5H       0.0816
     52 H21        -1.8040    7.7434   26.4928 H           1 Y5H       0.0778
     53 H22        -2.4251    8.8560   25.2768 H           1 Y5H       0.0778
     54 H23        -2.2666    9.3843   26.9482 H           1 Y5H       0.0778
     55 H24         1.4354    9.5256   27.0107 H           1 Y5H       0.0778
     56 H25         0.4316    8.1842   27.5671 H           1 Y5H       0.0778
     57 H26        -0.0378    9.8405   27.9241 H           1 Y5H       0.0778
     58 H27        -0.3483    8.2460   23.9728 H           1 Y5H       0.0778
     59 H28         0.3646    7.3171   25.2778 H           1 Y5H       0.0778
     60 H29         1.2476    8.6885   24.5858 H           1 Y5H       0.0778
@<TRIPOS>BOND
     1     1     2   1
     2     2     3   2
     3     2     5   1
     4     3     4   1
     5     4     6   2
     6     5     6   1
     7     6     7   1
     8     7     8   2
     9     7     9   1
    10     8    11   1
    11     9    10   1
    12    10    11   2
    13    11    12   1
    14    12    13   1
    15    12    19   1
    16    13    14   1
    17    13    17   1
    18    14    15   1
    19    14    18   1
    20    15    16   1
    21    16    17   1
    22    18    19   1
    23    18    22   1
    24    19    20   1
    25    20    21   2
    26    20    24  am
    27    22    23   2
    28    22    24  am
    29    24    25   1
    30    25    26   1
    31    26    27   1
    32    27    28   1
    33    28    29   1
    34    28    30   1
    35    28    31   1
    36     3    32   1
    37     4    33   1
    38    10    34   1
    39    12    35   1
    40    13    36   1
    41    14    37   1
    42    15    38   1
    43    15    39   1
    44    16    40   1
    45    16    41   1
    46    17    42   1
    47    17    43   1
    48    18    44   1
    49    19    45   1
    50    25    46   1
    51    25    47   1
    52    26    48   1
    53    26    49   1
    54    27    50   1
    55    27    51   1
    56    29    52   1
    57    29    53   1
    58    29    54   1
    59    30    55   1
    60    30    56   1
    61    30    57   1
    62    31    58   1
    63    31    59   1
    64    31    60   1
@<TRIPOS>SUBSTRUCTURE
     1  Y5H      1

