@<TRIPOS>MOLECULE
2y5h_ligand_056
    60    64
SMALL
GAST_HUCK
****
This file was generated by PARSER (from files_GN.cpp)

@<TRIPOS>ATOM
      1 CL1        -4.5114    6.7799   18.9228 Cl          1 Y5H      -0.0522
      2 C25        -5.0888    8.0626   19.8478 C.2         1 Y5H       0.0990
      3 C24        -6.3075    8.1219   20.5244 C.2         1 Y5H      -0.0555
      4 C22        -6.5368    9.3347   21.2012 C.2         1 Y5H      -0.0588
      5 S1         -4.2798    9.5554   20.1136 S.3         1 Y5H      -0.0195
      6 C20        -5.5025   10.2753   21.0854 C.2         1 Y5H       0.0881
      7 C17        -5.4635   11.5598   21.6412 C.2         1 Y5H       0.1971
      8 N16        -4.4087   12.3882   21.6020 N.2         1 Y5H      -0.3009
      9 O10        -6.4836   12.1378   22.3164 O.3         1 Y5H      -0.2447
     10 C9         -6.0529   13.3560   22.6936 C.2         1 Y5H       0.0987
     11 C4         -4.7439   13.5113   22.2555 C.2         1 Y5H       0.0610
     12 C1         -3.8384   14.6517   22.5440 C.3         1 Y5H       0.0342
     13 N3         -3.1918   15.1274   21.2887 N.4         1 Y5H       0.2526
     14 C7         -1.8482   14.5213   21.2002 C.3         1 Y5H       0.0038
     15 C14        -1.0063   15.4745   20.3160 C.3         1 Y5H      -0.0022
     16 C15        -1.9056   16.7031   20.0610 C.3         1 Y5H      -0.0072
     17 C8         -3.0028   16.5926   21.1305 C.3         1 Y5H      -0.0298
     18 C5         -1.3867   14.3457   22.6716 C.3         1 Y5H       0.1231
     19 C2         -2.6661   14.3332   23.5206 C.3         1 Y5H       0.1287
     20 C6         -2.6003   13.0321   24.1449 C.2         1 Y5H       0.2198
     21 O13        -3.4844   12.5942   24.8711 O.2         1 Y5H      -0.3852
     22 C11        -0.7890   13.0683   22.9625 C.2         1 Y5H       0.2184
     23 O18         0.2712   12.7289   22.4436 O.2         1 Y5H      -0.3853
     24 N12        -1.5507   12.3221   23.7529 N.am        1 Y5H      -0.1843
     25 C19        -1.3723   10.8932   23.9664 C.3         1 Y5H       0.0635
     26 C21        -1.0353   10.4773   25.4297 C.3         1 Y5H       0.0123
     27 C23        -1.1189    8.9112   25.5781 C.3         1 Y5H      -0.0286
     28 N29        -0.6715    8.2549   26.8787 N.4         1 Y5H       0.2369
     29 C32        -1.7333    8.3597   27.9513 C.3         1 Y5H      -0.0418
     30 C31         0.6115    8.8678   27.3864 C.3         1 Y5H      -0.0418
     31 C30        -0.4177    6.7666   26.6274 C.3         1 Y5H      -0.0418
     32 H1         -6.9823    7.3516   20.5283 H           1 Y5H       0.0446
     33 H2         -7.3946    9.5067   21.7390 H           1 Y5H       0.0483
     34 H3         -6.5937   14.0292   23.2433 H           1 Y5H       0.0892
     35 H4         -4.4467   15.4520   22.9758 H           1 Y5H       0.1004
     36 H5         -3.7520   14.8065   20.4839 H           1 Y5H       0.2053
     37 H6         -1.9504   13.5580   20.6917 H           1 Y5H       0.0882
     38 H7         -0.7434   15.0060   19.3600 H           1 Y5H       0.0323
     39 H8         -0.0780   15.7796   20.8058 H           1 Y5H       0.0323
     40 H9         -2.3556   16.6413   19.0648 H           1 Y5H       0.0319
     41 H10        -1.3604   17.6426   20.1509 H           1 Y5H       0.0319
     42 H11        -2.6667   17.0502   22.0640 H           1 Y5H       0.0815
     43 H12        -3.9301   17.0685   20.8044 H           1 Y5H       0.0815
     44 H13        -0.7242   15.1527   22.9895 H           1 Y5H       0.0632
     45 H14        -2.6090   15.0927   24.2980 H           1 Y5H       0.0648
     46 H15        -0.5629   10.4996   23.3286 H           1 Y5H       0.0578
     47 H16        -2.2985   10.3885   23.6420 H           1 Y5H       0.0578
     48 H17        -1.7653   10.9103   26.1147 H           1 Y5H       0.0340
     49 H18        -0.0225   10.7816   25.6952 H           1 Y5H       0.0340
     50 H19        -0.5580    8.4581   24.7284 H           1 Y5H       0.0816
     51 H20        -2.1815    8.6185   25.4040 H           1 Y5H       0.0816
     52 H21        -1.4115    7.8982   28.8885 H           1 Y5H       0.0778
     53 H22        -2.6575    7.8757   27.6371 H           1 Y5H       0.0778
     54 H23        -1.9635    9.4091   28.1615 H           1 Y5H       0.0778
     55 H24         1.3322    8.9806   26.5826 H           1 Y5H       0.0778
     56 H25         1.0710    8.2614   28.1929 H           1 Y5H       0.0778
     57 H26         0.4395    9.8504   27.8029 H           1 Y5H       0.0778
     58 H27        -1.3240    6.2677   26.2642 H           1 Y5H       0.0778
     59 H28        -0.0927    6.2435   27.5354 H           1 Y5H       0.0778
     60 H29         0.3639    6.6214   25.8654 H           1 Y5H       0.0778
@<TRIPOS>BOND
     1     1     2   1
     2     2     3   2
     3     2     5   1
     4     3     4   1
     5     4     6   2
     6     5     6   1
     7     6     7   1
     8     7     8   2
     9     7     9   1
    10     8    11   1
    11     9    10   1
    12    10    11   2
    13    11    12   1
    14    12    13   1
    15    12    19   1
    16    13    14   1
    17    13    17   1
    18    14    15   1
    19    14    18   1
    20    15    16   1
    21    16    17   1
    22    18    19   1
    23    18    22   1
    24    19    20   1
    25    20    21   2
    26    20    24  am
    27    22    23   2
    28    22    24  am
    29    24    25   1
    30    25    26   1
    31    26    27   1
    32    27    28   1
    33    28    29   1
    34    28    30   1
    35    28    31   1
    36     3    32   1
    37     4    33   1
    38    10    34   1
    39    12    35   1
    40    13    36   1
    41    14    37   1
    42    15    38   1
    43    15    39   1
    44    16    40   1
    45    16    41   1
    46    17    42   1
    47    17    43   1
    48    18    44   1
    49    19    45   1
    50    25    46   1
    51    25    47   1
    52    26    48   1
    53    26    49   1
    54    27    50   1
    55    27    51   1
    56    29    52   1
    57    29    53   1
    58    29    54   1
    59    30    55   1
    60    30    56   1
    61    30    57   1
    62    31    58   1
    63    31    59   1
    64    31    60   1
@<TRIPOS>SUBSTRUCTURE
     1  Y5H      1

