@<TRIPOS>MOLECULE
2y5h_ligand_081
    60    64
SMALL
GAST_HUCK
****
This file was generated by PARSER (from files_GN.cpp)

@<TRIPOS>ATOM
      1 CL1        -9.7327   13.0852   18.4682 Cl          1 Y5H      -0.0522
      2 C25        -9.0430   12.7620   19.9781 C.2         1 Y5H       0.0990
      3 C24        -9.6194   12.9669   21.2349 C.2         1 Y5H      -0.0555
      4 C22        -8.7889   12.6206   22.3173 C.2         1 Y5H      -0.0588
      5 S1         -7.4656   12.1292   20.2336 S.3         1 Y5H      -0.0195
      6 C20        -7.5332   12.1191   21.9552 C.2         1 Y5H       0.0881
      7 C17        -6.4680   11.7685   22.7940 C.2         1 Y5H       0.1971
      8 N16        -5.2929   11.2956   22.3556 N.2         1 Y5H      -0.3009
      9 O10        -6.4126   11.9772   24.1291 O.3         1 Y5H      -0.2447
     10 C9         -5.1582   11.6624   24.5113 C.2         1 Y5H       0.0987
     11 C4         -4.4464   11.2448   23.3924 C.2         1 Y5H       0.0610
     12 C1         -3.0201   10.8416   23.2797 C.3         1 Y5H       0.0342
     13 N3         -2.1633   11.2582   24.4241 N.4         1 Y5H       0.2526
     14 C7         -0.7614   11.2101   23.9614 C.3         1 Y5H       0.0038
     15 C14        -0.2327    9.8392   24.4369 C.3         1 Y5H      -0.0022
     16 C15        -0.9240    9.6571   25.7932 C.3         1 Y5H      -0.0072
     17 C8         -2.2440   10.4421   25.6679 C.3         1 Y5H      -0.0298
     18 C5         -0.7853   11.4037   22.4224 C.3         1 Y5H       0.1231
     19 C2         -2.2710   11.3663   22.0216 C.3         1 Y5H       0.1287
     20 C6         -2.4919   12.7301   21.5915 C.2         1 Y5H       0.2198
     21 O13        -3.5673   13.0999   21.1449 O.2         1 Y5H      -0.3852
     22 C11        -0.3697   12.7092   21.9794 C.2         1 Y5H       0.2184
     23 O18         0.8043   13.0627   22.0000 O.2         1 Y5H      -0.3853
     24 N12        -1.3780   13.4380   21.5288 N.am        1 Y5H      -0.1843
     25 C19        -1.2693   14.7213   20.8745 C.3         1 Y5H       0.0635
     26 C21        -0.5536   15.8467   21.6897 C.3         1 Y5H       0.0123
     27 C23         0.6756   16.4506   20.9382 C.3         1 Y5H      -0.0286
     28 N29         0.4447   17.5866   19.9432 N.4         1 Y5H       0.2369
     29 C32         1.5850   17.6072   18.9501 C.3         1 Y5H      -0.0418
     30 C31         0.4225   18.9060   20.6771 C.3         1 Y5H      -0.0418
     31 C30        -0.8394   17.4510   19.1554 C.3         1 Y5H      -0.0418
     32 H1        -10.5620   13.3469   21.3543 H           1 Y5H       0.0446
     33 H2         -9.0842   12.7422   23.2907 H           1 Y5H       0.0483
     34 H3         -4.8096   11.7258   25.4692 H           1 Y5H       0.0892
     35 H4         -3.0137    9.7509   23.2046 H           1 Y5H       0.1004
     36 H5         -2.3925   12.2288   24.6495 H           1 Y5H       0.2053
     37 H6         -0.1889   12.0006   24.4623 H           1 Y5H       0.0882
     38 H7          0.8569    9.8298   24.5266 H           1 Y5H       0.0323
     39 H8         -0.5411    9.0434   23.7512 H           1 Y5H       0.0323
     40 H9         -0.3047   10.0822   26.5886 H           1 Y5H       0.0319
     41 H10        -1.1004    8.5974   26.0012 H           1 Y5H       0.0319
     42 H11        -3.0944    9.7528   25.6556 H           1 Y5H       0.0815
     43 H12        -2.3677   11.1113   26.5251 H           1 Y5H       0.0815
     44 H13        -0.2066   10.6349   21.8969 H           1 Y5H       0.0632
     45 H14        -2.4293   10.6878   21.1710 H           1 Y5H       0.0648
     46 H15        -2.2541   15.1073   20.5916 H           1 Y5H       0.0578
     47 H16        -0.7446   14.5173   19.9381 H           1 Y5H       0.0578
     48 H17        -0.2211   15.4382   22.6472 H           1 Y5H       0.0340
     49 H18        -1.2636   16.6395   21.9243 H           1 Y5H       0.0340
     50 H19         1.1915   15.6213   20.4446 H           1 Y5H       0.0816
     51 H20         1.3796   16.7800   21.7076 H           1 Y5H       0.0816
     52 H21         1.4941   18.4471   18.2566 H           1 Y5H       0.0778
     53 H22         1.6008   16.6908   18.3491 H           1 Y5H       0.0778
     54 H23         2.5543   17.6887   19.4481 H           1 Y5H       0.0778
     55 H24        -0.3862   18.9355   21.4082 H           1 Y5H       0.0778
     56 H25         0.2778   19.7463   19.9926 H           1 Y5H       0.0778
     57 H26         1.3620   19.0808   21.2128 H           1 Y5H       0.0778
     58 H27        -0.8648   16.5112   18.5995 H           1 Y5H       0.0778
     59 H28        -0.9520   18.2629   18.4333 H           1 Y5H       0.0778
     60 H29        -1.7229   17.4828   19.7998 H           1 Y5H       0.0778
@<TRIPOS>BOND
     1     1     2   1
     2     2     3   2
     3     2     5   1
     4     3     4   1
     5     4     6   2
     6     5     6   1
     7     6     7   1
     8     7     8   2
     9     7     9   1
    10     8    11   1
    11     9    10   1
    12    10    11   2
    13    11    12   1
    14    12    13   1
    15    12    19   1
    16    13    14   1
    17    13    17   1
    18    14    15   1
    19    14    18   1
    20    15    16   1
    21    16    17   1
    22    18    19   1
    23    18    22   1
    24    19    20   1
    25    20    21   2
    26    20    24  am
    27    22    23   2
    28    22    24  am
    29    24    25   1
    30    25    26   1
    31    26    27   1
    32    27    28   1
    33    28    29   1
    34    28    30   1
    35    28    31   1
    36     3    32   1
    37     4    33   1
    38    10    34   1
    39    12    35   1
    40    13    36   1
    41    14    37   1
    42    15    38   1
    43    15    39   1
    44    16    40   1
    45    16    41   1
    46    17    42   1
    47    17    43   1
    48    18    44   1
    49    19    45   1
    50    25    46   1
    51    25    47   1
    52    26    48   1
    53    26    49   1
    54    27    50   1
    55    27    51   1
    56    29    52   1
    57    29    53   1
    58    29    54   1
    59    30    55   1
    60    30    56   1
    61    30    57   1
    62    31    58   1
    63    31    59   1
    64    31    60   1
@<TRIPOS>SUBSTRUCTURE
     1  Y5H      1

