@<TRIPOS>MOLECULE
2y5h_ligand_076
    60    64
SMALL
GAST_HUCK
****
This file was generated by PARSER (from files_GN.cpp)

@<TRIPOS>ATOM
      1 CL1        -3.5908   14.1612   13.8995 Cl          1 Y5H      -0.0522
      2 C25        -2.5283   13.7307   15.1360 C.2         1 Y5H       0.0990
      3 C24        -1.2025   13.3158   14.9952 C.2         1 Y5H      -0.0555
      4 C22        -0.5625   12.9979   16.2040 C.2         1 Y5H      -0.0588
      5 S1         -2.9040   13.6945   16.8112 S.3         1 Y5H      -0.0195
      6 C20        -1.3596   13.1475   17.3433 C.2         1 Y5H       0.0881
      7 C17        -1.0209   12.8545   18.6761 C.2         1 Y5H       0.1971
      8 N16        -1.8535   12.9375   19.7192 N.2         1 Y5H      -0.3009
      9 O10         0.1959   12.4112   19.0855 O.3         1 Y5H      -0.2447
     10 C9          0.0942   12.2119   20.4124 C.2         1 Y5H       0.0987
     11 C4         -1.2077   12.5130   20.8222 C.2         1 Y5H       0.0610
     12 C1         -1.7636   12.5226   22.2043 C.3         1 Y5H       0.0342
     13 N3         -1.1080   11.4902   23.0612 N.4         1 Y5H       0.2526
     14 C7         -1.9727   10.2965   23.1341 C.3         1 Y5H       0.0038
     15 C14        -1.6443    9.6126   24.4904 C.3         1 Y5H      -0.0022
     16 C15        -0.6262   10.5394   25.1794 C.3         1 Y5H      -0.0072
     17 C8         -0.7952   11.8787   24.4527 C.3         1 Y5H      -0.0298
     18 C5         -3.4236   10.8262   22.9562 C.3         1 Y5H       0.1231
     19 C2         -3.2944   12.2561   22.4024 C.3         1 Y5H       0.1287
     20 C6         -4.1689   12.2096   21.2583 C.2         1 Y5H       0.2198
     21 O13        -4.4677   13.2266   20.6356 O.2         1 Y5H      -0.3852
     22 C11        -4.2178   10.1716   21.9464 C.2         1 Y5H       0.2184
     23 O18        -4.5155    8.9918   22.0271 O.2         1 Y5H      -0.3853
     24 N12        -4.6241   10.9996   20.9967 N.am        1 Y5H      -0.1843
     25 C19        -5.4238   10.6490   19.8399 C.3         1 Y5H       0.0635
     26 C21        -4.5392   10.4000   18.5784 C.3         1 Y5H       0.0123
     27 C23        -5.2029   10.7058   17.1954 C.3         1 Y5H      -0.0286
     28 N29        -6.0770    9.6691   16.5062 N.4         1 Y5H       0.2369
     29 C32        -7.1319    9.1218   17.4330 C.3         1 Y5H      -0.0418
     30 C31        -5.2397    8.5292   15.9723 C.3         1 Y5H      -0.0418
     31 C30        -6.7705   10.3279   15.3317 C.3         1 Y5H      -0.0418
     32 H1         -0.7389   13.2457   14.0858 H           1 Y5H       0.0446
     33 H2          0.4062   12.6747   16.2406 H           1 Y5H       0.0483
     34 H3          0.8703   11.9124   21.0066 H           1 Y5H       0.0892
     35 H4         -1.5385   13.5254   22.5827 H           1 Y5H       0.1004
     36 H5         -0.2252   11.2000   22.6390 H           1 Y5H       0.2053
     37 H6         -1.6979    9.6274   22.3105 H           1 Y5H       0.0882
     38 H7         -1.2068    8.6232   24.3370 H           1 Y5H       0.0323
     39 H8         -2.5305    9.4963   25.1179 H           1 Y5H       0.0323
     40 H9          0.3895   10.1636   25.0305 H           1 Y5H       0.0319
     41 H10        -0.8157   10.6361   26.2511 H           1 Y5H       0.0319
     42 H11        -1.6082   12.4506   24.9128 H           1 Y5H       0.0815
     43 H12         0.1233   12.4666   24.4813 H           1 Y5H       0.0815
     44 H13        -3.9776   10.8347   23.9011 H           1 Y5H       0.0632
     45 H14        -3.6978   12.9657   23.1340 H           1 Y5H       0.0648
     46 H15        -6.1425   11.4521   19.6581 H           1 Y5H       0.0578
     47 H16        -6.0167    9.7511   20.0345 H           1 Y5H       0.0578
     48 H17        -4.1728    9.3735   18.6019 H           1 Y5H       0.0340
     49 H18        -3.6568   11.0399   18.6512 H           1 Y5H       0.0340
     50 H19        -4.3839   10.9487   16.5100 H           1 Y5H       0.0816
     51 H20        -5.7631   11.6376   17.3212 H           1 Y5H       0.0816
     52 H21        -7.8677    8.5183   16.8917 H           1 Y5H       0.0778
     53 H22        -7.6757    9.9258   17.9343 H           1 Y5H       0.0778
     54 H23        -6.6934    8.4831   18.2032 H           1 Y5H       0.0778
     55 H24        -4.4769    8.8888   15.2759 H           1 Y5H       0.0778
     56 H25        -5.8516    7.7959   15.4381 H           1 Y5H       0.0778
     57 H26        -4.7243    7.9919   16.7712 H           1 Y5H       0.0778
     58 H27        -7.4431   11.1222   15.6634 H           1 Y5H       0.0778
     59 H28        -7.3681    9.6127   14.7605 H           1 Y5H       0.0778
     60 H29        -6.0495   10.7733   14.6411 H           1 Y5H       0.0778
@<TRIPOS>BOND
     1     1     2   1
     2     2     3   2
     3     2     5   1
     4     3     4   1
     5     4     6   2
     6     5     6   1
     7     6     7   1
     8     7     8   2
     9     7     9   1
    10     8    11   1
    11     9    10   1
    12    10    11   2
    13    11    12   1
    14    12    13   1
    15    12    19   1
    16    13    14   1
    17    13    17   1
    18    14    15   1
    19    14    18   1
    20    15    16   1
    21    16    17   1
    22    18    19   1
    23    18    22   1
    24    19    20   1
    25    20    21   2
    26    20    24  am
    27    22    23   2
    28    22    24  am
    29    24    25   1
    30    25    26   1
    31    26    27   1
    32    27    28   1
    33    28    29   1
    34    28    30   1
    35    28    31   1
    36     3    32   1
    37     4    33   1
    38    10    34   1
    39    12    35   1
    40    13    36   1
    41    14    37   1
    42    15    38   1
    43    15    39   1
    44    16    40   1
    45    16    41   1
    46    17    42   1
    47    17    43   1
    48    18    44   1
    49    19    45   1
    50    25    46   1
    51    25    47   1
    52    26    48   1
    53    26    49   1
    54    27    50   1
    55    27    51   1
    56    29    52   1
    57    29    53   1
    58    29    54   1
    59    30    55   1
    60    30    56   1
    61    30    57   1
    62    31    58   1
    63    31    59   1
    64    31    60   1
@<TRIPOS>SUBSTRUCTURE
     1  Y5H      1

