@<TRIPOS>MOLECULE
2y5h_ligand_047
    60    64
SMALL
GAST_HUCK
****
This file was generated by PARSER (from files_GN.cpp)

@<TRIPOS>ATOM
      1 CL1       -11.5549   11.3122   23.5200 Cl          1 Y5H      -0.0522
      2 C25        -9.9924   10.9113   23.0191 C.2         1 Y5H       0.0990
      3 C24        -9.5757    9.6900   22.4854 C.2         1 Y5H      -0.0555
      4 C22        -8.2018    9.6330   22.1806 C.2         1 Y5H      -0.0588
      5 S1         -8.6176   11.9415   23.0938 S.3         1 Y5H      -0.0195
      6 C20        -7.4929   10.8124   22.4447 C.2         1 Y5H       0.0881
      7 C17        -6.1147   11.0203   22.2695 C.2         1 Y5H       0.1971
      8 N16        -5.4803   12.1958   22.4289 N.2         1 Y5H      -0.3009
      9 O10        -5.2278   10.0463   21.9703 O.3         1 Y5H      -0.2447
     10 C9         -4.0130   10.6307   21.9476 C.2         1 Y5H       0.0987
     11 C4         -4.1697   11.9820   22.2270 C.2         1 Y5H       0.0610
     12 C1         -3.1181   13.0286   22.3554 C.3         1 Y5H       0.0342
     13 N3         -2.2037   13.0165   21.1784 N.4         1 Y5H       0.2526
     14 C7         -0.9721   12.2858   21.5464 C.3         1 Y5H       0.0038
     15 C14         0.1776   12.8855   20.6947 C.3         1 Y5H      -0.0022
     16 C15        -0.4888   13.9836   19.8493 C.3         1 Y5H      -0.0072
     17 C8         -1.7627   14.3243   20.6359 C.3         1 Y5H      -0.0298
     18 C5         -0.8299   12.4290   23.0910 C.3         1 Y5H       0.1231
     19 C2         -2.1931   12.9165   23.6067 C.3         1 Y5H       0.1287
     20 C6         -2.4871   11.9520   24.6419 C.2         1 Y5H       0.2198
     21 O13        -3.5108   12.0350   25.3072 O.2         1 Y5H      -0.3852
     22 C11        -0.6396   11.1990   23.8290 C.2         1 Y5H       0.2184
     23 O18         0.3102   10.4601   23.6206 O.2         1 Y5H      -0.3853
     24 N12        -1.5818   10.9928   24.7385 N.am        1 Y5H      -0.1843
     25 C19        -1.6827    9.8466   25.6290 C.3         1 Y5H       0.0635
     26 C21        -0.3609    9.4024   26.3278 C.3         1 Y5H       0.0123
     27 C23        -0.4854    8.5297   27.6231 C.3         1 Y5H      -0.0286
     28 N29        -1.1070    7.1309   27.5924 N.4         1 Y5H       0.2369
     29 C32        -0.6654    6.3601   28.8206 C.3         1 Y5H      -0.0418
     30 C31        -0.6652    6.3527   26.3779 C.3         1 Y5H      -0.0418
     31 C30        -2.6157    7.2081   27.6301 C.3         1 Y5H      -0.0418
     32 H1        -10.2098    8.9022   22.3340 H           1 Y5H       0.0446
     33 H2         -7.7669    8.7923   21.7888 H           1 Y5H       0.0483
     34 H3         -3.1403   10.1377   21.7722 H           1 Y5H       0.0892
     35 H4         -3.6431   13.9913   22.4037 H           1 Y5H       0.1004
     36 H5         -2.6552   12.5142   20.4123 H           1 Y5H       0.2053
     37 H6         -1.1049   11.2365   21.2685 H           1 Y5H       0.0882
     38 H7          0.6258   12.1247   20.0497 H           1 Y5H       0.0323
     39 H8          0.9682   13.3190   21.3112 H           1 Y5H       0.0323
     40 H9         -0.7516   13.5903   18.8625 H           1 Y5H       0.0319
     41 H10         0.1609   14.8548   19.7243 H           1 Y5H       0.0319
     42 H11        -1.5269   15.0382   21.4301 H           1 Y5H       0.0815
     43 H12        -2.5240   14.7526   19.9840 H           1 Y5H       0.0815
     44 H13        -0.0497   13.1450   23.3719 H           1 Y5H       0.0632
     45 H14        -2.0882   13.9023   24.0707 H           1 Y5H       0.0648
     46 H15        -2.0587    9.0059   25.0349 H           1 Y5H       0.0578
     47 H16        -2.4124   10.0531   26.4187 H           1 Y5H       0.0578
     48 H17         0.1885   10.3095   26.5990 H           1 Y5H       0.0340
     49 H18         0.2637    8.8689   25.6042 H           1 Y5H       0.0340
     50 H19        -0.9959    9.1401   28.3745 H           1 Y5H       0.0816
     51 H20         0.5462    8.4447   27.9765 H           1 Y5H       0.0816
     52 H21        -1.1307    5.3661   28.8710 H           1 Y5H       0.0778
     53 H22        -0.9310    6.8952   29.7433 H           1 Y5H       0.0778
     54 H23         0.4201    6.2023   28.8270 H           1 Y5H       0.0778
     55 H24        -1.0553    6.7963   25.4606 H           1 Y5H       0.0778
     56 H25        -1.0178    5.3157   26.4149 H           1 Y5H       0.0778
     57 H26         0.4272    6.3267   26.2970 H           1 Y5H       0.0778
     58 H27        -2.9654    7.7461   28.5176 H           1 Y5H       0.0778
     59 H28        -3.0691    6.2114   27.6494 H           1 Y5H       0.0778
     60 H29        -3.0186    7.7170   26.7537 H           1 Y5H       0.0778
@<TRIPOS>BOND
     1     1     2   1
     2     2     3   2
     3     2     5   1
     4     3     4   1
     5     4     6   2
     6     5     6   1
     7     6     7   1
     8     7     8   2
     9     7     9   1
    10     8    11   1
    11     9    10   1
    12    10    11   2
    13    11    12   1
    14    12    13   1
    15    12    19   1
    16    13    14   1
    17    13    17   1
    18    14    15   1
    19    14    18   1
    20    15    16   1
    21    16    17   1
    22    18    19   1
    23    18    22   1
    24    19    20   1
    25    20    21   2
    26    20    24  am
    27    22    23   2
    28    22    24  am
    29    24    25   1
    30    25    26   1
    31    26    27   1
    32    27    28   1
    33    28    29   1
    34    28    30   1
    35    28    31   1
    36     3    32   1
    37     4    33   1
    38    10    34   1
    39    12    35   1
    40    13    36   1
    41    14    37   1
    42    15    38   1
    43    15    39   1
    44    16    40   1
    45    16    41   1
    46    17    42   1
    47    17    43   1
    48    18    44   1
    49    19    45   1
    50    25    46   1
    51    25    47   1
    52    26    48   1
    53    26    49   1
    54    27    50   1
    55    27    51   1
    56    29    52   1
    57    29    53   1
    58    29    54   1
    59    30    55   1
    60    30    56   1
    61    30    57   1
    62    31    58   1
    63    31    59   1
    64    31    60   1
@<TRIPOS>SUBSTRUCTURE
     1  Y5H      1

