@<TRIPOS>MOLECULE
2y5h_ligand_023
    60    64
SMALL
GAST_HUCK
****
This file was generated by PARSER (from files_GN.cpp)

@<TRIPOS>ATOM
      1 CL1         2.6366   19.1250   20.3400 Cl          1 Y5H      -0.0522
      2 C25         2.2449   17.6822   21.1241 C.2         1 Y5H       0.0990
      3 C24         3.1246   16.8506   21.8181 C.2         1 Y5H      -0.0555
      4 C22         2.5217   15.7110   22.3783 C.2         1 Y5H      -0.0588
      5 S1          0.6788   16.9853   21.2210 S.3         1 Y5H      -0.0195
      6 C20         1.1393   15.6080   22.1564 C.2         1 Y5H       0.0881
      7 C17         0.2886   14.6038   22.6247 C.2         1 Y5H       0.1971
      8 N16        -1.0508   14.6170   22.5428 N.2         1 Y5H      -0.3009
      9 O10         0.7002   13.4942   23.2784 O.3         1 Y5H      -0.2447
     10 C9         -0.4124   12.8086   23.6071 C.2         1 Y5H       0.0987
     11 C4         -1.5236   13.5050   23.1355 C.2         1 Y5H       0.0610
     12 C1         -2.9830   13.2499   23.2657 C.3         1 Y5H       0.0342
     13 N3         -3.5420   14.2489   24.2241 N.4         1 Y5H       0.2526
     14 C7         -3.6464   13.6014   25.5492 C.3         1 Y5H       0.0038
     15 C14        -4.7458   14.3750   26.3178 C.3         1 Y5H      -0.0022
     16 C15        -5.3796   15.3291   25.2826 C.3         1 Y5H      -0.0072
     17 C8         -4.8835   14.8048   23.9275 C.3         1 Y5H      -0.0298
     18 C5         -3.9474   12.1105   25.2416 C.3         1 Y5H       0.1231
     19 C2         -3.5252   11.8809   23.7778 C.3         1 Y5H       0.1287
     20 C6         -2.6799   10.7121   23.8824 C.2         1 Y5H       0.2198
     21 O13        -2.2245   10.1461   22.8956 O.2         1 Y5H      -0.3852
     22 C11        -3.1719   11.1234   25.9514 C.2         1 Y5H       0.2184
     23 O18        -3.2504   10.9929   27.1667 O.2         1 Y5H      -0.3853
     24 N12        -2.4984   10.3237   25.1386 N.am        1 Y5H      -0.1843
     25 C19        -1.8289    9.1149   25.5656 C.3         1 Y5H       0.0635
     26 C21        -0.6661    9.3072   26.5738 C.3         1 Y5H       0.0123
     27 C23        -0.5309    8.3403   27.7993 C.3         1 Y5H      -0.0286
     28 N29        -1.0191    6.8772   27.7895 N.4         1 Y5H       0.2369
     29 C32        -2.5174    6.7758   27.9378 C.3         1 Y5H      -0.0418
     30 C31        -0.4172    6.1373   28.9719 C.3         1 Y5H      -0.0418
     31 C30        -0.6032    6.1371   26.5433 C.3         1 Y5H      -0.0418
     32 H1          4.1206   17.0479   21.9118 H           1 Y5H       0.0446
     33 H2          3.0488   15.0199   22.9175 H           1 Y5H       0.0483
     34 H3         -0.4014   11.9544   24.1545 H           1 Y5H       0.0892
     35 H4         -3.3990   13.4187   22.2667 H           1 Y5H       0.1004
     36 H5         -2.9079   15.0485   24.3137 H           1 Y5H       0.2053
     37 H6         -2.6899   13.7152   26.0599 H           1 Y5H       0.0882
     38 H7         -4.3160   14.9534   27.1450 H           1 Y5H       0.0323
     39 H8         -5.5049   13.7065   26.7397 H           1 Y5H       0.0323
     40 H9         -5.0173   16.3479   25.4417 H           1 Y5H       0.0319
     41 H10        -6.4715   15.3251   25.3368 H           1 Y5H       0.0319
     42 H11        -5.5692   14.0347   23.5543 H           1 Y5H       0.0815
     43 H12        -4.8143   15.6076   23.1877 H           1 Y5H       0.0815
     44 H13        -5.0046   11.8748   25.3621 H           1 Y5H       0.0632
     45 H14        -4.4067   11.5993   23.1885 H           1 Y5H       0.0648
     46 H15        -1.4289    8.5638   24.7016 H           1 Y5H       0.0578
     47 H16        -2.5972    8.5139   26.0192 H           1 Y5H       0.0578
     48 H17        -0.7290   10.3251   26.9906 H           1 Y5H       0.0340
     49 H18         0.2953    9.2876   26.0208 H           1 Y5H       0.0340
     50 H19        -0.9831    8.8578   28.6577 H           1 Y5H       0.0816
     51 H20         0.5452    8.3541   28.0226 H           1 Y5H       0.0816
     52 H21        -2.8247    5.7348   28.0434 H           1 Y5H       0.0778
     53 H22        -3.0548    7.1593   27.0847 H           1 Y5H       0.0778
     54 H23        -2.8654    7.3119   28.8251 H           1 Y5H       0.0778
     55 H24         0.6809    6.0967   28.9065 H           1 Y5H       0.0778
     56 H25        -0.7576    5.1044   29.0427 H           1 Y5H       0.0778
     57 H26        -0.6755    6.6266   29.9129 H           1 Y5H       0.0778
     58 H27        -1.0691    6.5676   25.6639 H           1 Y5H       0.0778
     59 H28        -0.9237    5.0877   26.5756 H           1 Y5H       0.0778
     60 H29         0.4799    6.1554   26.3874 H           1 Y5H       0.0778
@<TRIPOS>BOND
     1     1     2   1
     2     2     3   2
     3     2     5   1
     4     3     4   1
     5     4     6   2
     6     5     6   1
     7     6     7   1
     8     7     8   2
     9     7     9   1
    10     8    11   1
    11     9    10   1
    12    10    11   2
    13    11    12   1
    14    12    13   1
    15    12    19   1
    16    13    14   1
    17    13    17   1
    18    14    15   1
    19    14    18   1
    20    15    16   1
    21    16    17   1
    22    18    19   1
    23    18    22   1
    24    19    20   1
    25    20    21   2
    26    20    24  am
    27    22    23   2
    28    22    24  am
    29    24    25   1
    30    25    26   1
    31    26    27   1
    32    27    28   1
    33    28    29   1
    34    28    30   1
    35    28    31   1
    36     3    32   1
    37     4    33   1
    38    10    34   1
    39    12    35   1
    40    13    36   1
    41    14    37   1
    42    15    38   1
    43    15    39   1
    44    16    40   1
    45    16    41   1
    46    17    42   1
    47    17    43   1
    48    18    44   1
    49    19    45   1
    50    25    46   1
    51    25    47   1
    52    26    48   1
    53    26    49   1
    54    27    50   1
    55    27    51   1
    56    29    52   1
    57    29    53   1
    58    29    54   1
    59    30    55   1
    60    30    56   1
    61    30    57   1
    62    31    58   1
    63    31    59   1
    64    31    60   1
@<TRIPOS>SUBSTRUCTURE
     1  Y5H      1

