@<TRIPOS>MOLECULE
2y5h_ligand_002
    60    64
SMALL
GAST_HUCK
****
This file was generated by PARSER (from files_GN.cpp)

@<TRIPOS>ATOM
      1 CL1        -6.1746    9.1796   12.4630 Cl          1 Y5H      -0.0522
      2 C25        -5.3571   10.4332   13.2460 C.2         1 Y5H       0.0990
      3 C24        -4.8892   11.6102   12.6678 C.2         1 Y5H      -0.0555
      4 C22        -4.2335   12.4786   13.5625 C.2         1 Y5H      -0.0588
      5 S1         -4.9342   10.4728   14.9137 S.3         1 Y5H      -0.0195
      6 C20        -4.1492   12.0035   14.8746 C.2         1 Y5H       0.0881
      7 C17        -3.5616   12.6483   15.9751 C.2         1 Y5H       0.1971
      8 N16        -3.5352   12.1495   17.2217 N.2         1 Y5H      -0.3009
      9 O10        -3.0006   13.8777   15.9520 O.3         1 Y5H      -0.2447
     10 C9         -2.6306   14.1522   17.2218 C.2         1 Y5H       0.0987
     11 C4         -2.9866   13.0732   18.0253 C.2         1 Y5H       0.0610
     12 C1         -2.8023   12.9574   19.4960 C.3         1 Y5H       0.0342
     13 N3         -1.6006   12.1409   19.8223 N.4         1 Y5H       0.2526
     14 C7         -1.7717   11.6398   21.1999 C.3         1 Y5H       0.0038
     15 C14        -0.9808   12.6205   22.0902 C.3         1 Y5H      -0.0022
     16 C15         0.2260   12.9825   21.2133 C.3         1 Y5H      -0.0072
     17 C8         -0.2808   12.8298   19.7627 C.3         1 Y5H      -0.0298
     18 C5         -3.2970   11.5810   21.4780 C.3         1 Y5H       0.1231
     19 C2         -3.9749   12.3431   20.3223 C.3         1 Y5H       0.1287
     20 C6         -4.7944   11.3047   19.7369 C.2         1 Y5H       0.2198
     21 O13        -5.6220   11.5531   18.8674 O.2         1 Y5H      -0.3852
     22 C11        -3.8517   10.2554   21.3580 C.2         1 Y5H       0.2184
     23 O18        -3.6049    9.3810   22.1800 O.2         1 Y5H      -0.3853
     24 N12        -4.6696   10.1320   20.3318 N.am        1 Y5H      -0.1843
     25 C19        -5.3594    8.9188   19.9338 C.3         1 Y5H       0.0635
     26 C21        -4.8906    8.3887   18.5475 C.3         1 Y5H       0.0123
     27 C23        -5.9327    7.5568   17.7338 C.3         1 Y5H      -0.0286
     28 N29        -6.3718    6.1593   18.1612 N.4         1 Y5H       0.2369
     29 C32        -7.3233    6.1947   19.3341 C.3         1 Y5H      -0.0418
     30 C31        -5.1832    5.2942   18.4940 C.3         1 Y5H      -0.0418
     31 C30        -7.1083    5.5162   17.0073 C.3         1 Y5H      -0.0418
     32 H1         -5.0056   11.8260   11.6751 H           1 Y5H       0.0446
     33 H2         -3.8481   13.3758   13.2650 H           1 Y5H       0.0483
     34 H3         -2.1715   15.0097   17.5293 H           1 Y5H       0.0892
     35 H4         -2.6550   13.9710   19.8918 H           1 Y5H       0.1004
     36 H5         -1.5782   11.3357   19.1917 H           1 Y5H       0.2053
     37 H6         -1.3068   10.6483   21.2742 H           1 Y5H       0.0882
     38 H7         -0.6779   12.1549   23.0320 H           1 Y5H       0.0323
     39 H8         -1.5684   13.5184   22.3050 H           1 Y5H       0.0323
     40 H9          1.0426   12.2798   21.4009 H           1 Y5H       0.0319
     41 H10         0.5747   13.9979   21.4204 H           1 Y5H       0.0319
     42 H11        -0.3405   13.8087   19.2781 H           1 Y5H       0.0815
     43 H12         0.4123   12.2149   19.1848 H           1 Y5H       0.0815
     44 H13        -3.5627   12.0091   22.4504 H           1 Y5H       0.0632
     45 H14        -4.6280   13.1338   20.7081 H           1 Y5H       0.0648
     46 H15        -6.4354    9.1191   19.9167 H           1 Y5H       0.0578
     47 H16        -5.1889    8.1288   20.6699 H           1 Y5H       0.0578
     48 H17        -3.9703    7.8088   18.6684 H           1 Y5H       0.0340
     49 H18        -4.6355    9.2542   17.9267 H           1 Y5H       0.0340
     50 H19        -5.4818    7.4753   16.7373 H           1 Y5H       0.0816
     51 H20        -6.8193    8.1884   17.6069 H           1 Y5H       0.0816
     52 H21        -7.6690    5.1902   19.6012 H           1 Y5H       0.0778
     53 H22        -8.2078    6.8009   19.1123 H           1 Y5H       0.0778
     54 H23        -6.8584    6.6050   20.2264 H           1 Y5H       0.0778
     55 H24        -4.4765    5.2559   17.6581 H           1 Y5H       0.0778
     56 H25        -5.4855    4.2656   18.7221 H           1 Y5H       0.0778
     57 H26        -4.6485    5.6776   19.3647 H           1 Y5H       0.0778
     58 H27        -7.9650    6.1211   16.6955 H           1 Y5H       0.0778
     59 H28        -7.4840    4.5219   17.2673 H           1 Y5H       0.0778
     60 H29        -6.4568    5.3959   16.1375 H           1 Y5H       0.0778
@<TRIPOS>BOND
     1     1     2   1
     2     2     3   2
     3     2     5   1
     4     3     4   1
     5     4     6   2
     6     5     6   1
     7     6     7   1
     8     7     8   2
     9     7     9   1
    10     8    11   1
    11     9    10   1
    12    10    11   2
    13    11    12   1
    14    12    13   1
    15    12    19   1
    16    13    14   1
    17    13    17   1
    18    14    15   1
    19    14    18   1
    20    15    16   1
    21    16    17   1
    22    18    19   1
    23    18    22   1
    24    19    20   1
    25    20    21   2
    26    20    24  am
    27    22    23   2
    28    22    24  am
    29    24    25   1
    30    25    26   1
    31    26    27   1
    32    27    28   1
    33    28    29   1
    34    28    30   1
    35    28    31   1
    36     3    32   1
    37     4    33   1
    38    10    34   1
    39    12    35   1
    40    13    36   1
    41    14    37   1
    42    15    38   1
    43    15    39   1
    44    16    40   1
    45    16    41   1
    46    17    42   1
    47    17    43   1
    48    18    44   1
    49    19    45   1
    50    25    46   1
    51    25    47   1
    52    26    48   1
    53    26    49   1
    54    27    50   1
    55    27    51   1
    56    29    52   1
    57    29    53   1
    58    29    54   1
    59    30    55   1
    60    30    56   1
    61    30    57   1
    62    31    58   1
    63    31    59   1
    64    31    60   1
@<TRIPOS>SUBSTRUCTURE
     1  Y5H      1

