@<TRIPOS>MOLECULE
2y5h_ligand_066
    60    64
SMALL
GAST_HUCK
****
This file was generated by PARSER (from files_GN.cpp)

@<TRIPOS>ATOM
      1 CL1         1.4286   17.4895   17.5994 Cl          1 Y5H      -0.0522
      2 C25         0.4448   16.7616   18.7596 C.2         1 Y5H       0.0990
      3 C24         0.0088   17.3322   19.9569 C.2         1 Y5H      -0.0555
      4 C22        -0.8032   16.4926   20.7361 C.2         1 Y5H      -0.0588
      5 S1         -0.2191   15.1783   18.6720 S.3         1 Y5H      -0.0195
      6 C20        -1.0495   15.2278   20.1783 C.2         1 Y5H       0.0881
      7 C17        -1.8402   14.2023   20.7122 C.2         1 Y5H       0.1971
      8 N16        -2.3764   14.2069   21.9433 N.2         1 Y5H      -0.3009
      9 O10        -2.2071   13.0771   20.0535 O.3         1 Y5H      -0.2447
     10 C9         -2.9989   12.3815   20.8928 C.2         1 Y5H       0.0987
     11 C4         -3.0924   13.0807   22.0914 C.2         1 Y5H       0.0610
     12 C1         -3.8815   12.7120   23.2939 C.3         1 Y5H       0.0342
     13 N3         -3.7420   13.7293   24.3773 N.4         1 Y5H       0.2526
     14 C7         -4.0598   13.0723   25.6560 C.3         1 Y5H       0.0038
     15 C14        -5.5324   13.4419   25.9316 C.3         1 Y5H      -0.0022
     16 C15        -5.6314   14.8830   25.4118 C.3         1 Y5H      -0.0072
     17 C8         -4.5881   14.9526   24.2774 C.3         1 Y5H      -0.0298
     18 C5         -3.7591   11.5616   25.4737 C.3         1 Y5H       0.1231
     19 C2         -3.5543   11.3438   23.9635 C.3         1 Y5H       0.1287
     20 C6         -2.1959   10.8468   23.9154 C.2         1 Y5H       0.2198
     21 O13        -1.6869   10.4563   22.8757 O.2         1 Y5H      -0.3852
     22 C11        -2.4964   11.1352   26.0255 C.2         1 Y5H       0.2184
     23 O18        -2.2928   11.1532   27.2258 O.2         1 Y5H      -0.3853
     24 N12        -1.6395   10.7316   25.1066 N.am        1 Y5H      -0.1843
     25 C19        -0.3238   10.1870   25.3651 C.3         1 Y5H       0.0635
     26 C21        -0.3677    8.6738   25.7199 C.3         1 Y5H       0.0123
     27 C23        -0.4468    8.3324   27.2485 C.3         1 Y5H      -0.0286
     28 N29        -1.1414    7.0398   27.6552 N.4         1 Y5H       0.2369
     29 C32        -0.8304    6.7190   29.0983 C.3         1 Y5H      -0.0418
     30 C31        -0.6628    5.8810   26.8143 C.3         1 Y5H      -0.0418
     31 C30        -2.6383    7.1985   27.5405 C.3         1 Y5H      -0.0418
     32 H1          0.2522   18.2819   20.2430 H           1 Y5H       0.0446
     33 H2         -1.2006   16.7906   21.6309 H           1 Y5H       0.0483
     34 H3         -3.4423   11.4869   20.6817 H           1 Y5H       0.0892
     35 H4         -4.9312   12.6665   22.9787 H           1 Y5H       0.1004
     36 H5         -2.7599   14.0156   24.4119 H           1 Y5H       0.2053
     37 H6         -3.4350   13.5136   26.4406 H           1 Y5H       0.0882
     38 H7         -5.7728   13.3784   26.9956 H           1 Y5H       0.0323
     39 H8         -6.2102   12.7956   25.3658 H           1 Y5H       0.0323
     40 H9         -5.3711   15.5848   26.2099 H           1 Y5H       0.0319
     41 H10        -6.6397   15.1091   25.0558 H           1 Y5H       0.0319
     42 H11        -5.0867   15.0389   23.3078 H           1 Y5H       0.0815
     43 H12        -3.9566   15.8331   24.4048 H           1 Y5H       0.0815
     44 H13        -4.5645   10.9322   25.8674 H           1 Y5H       0.0632
     45 H14        -4.2301   10.5682   23.5883 H           1 Y5H       0.0648
     46 H15         0.1771   10.7410   26.1590 H           1 Y5H       0.0578
     47 H16         0.3050   10.3087   24.4812 H           1 Y5H       0.0578
     48 H17         0.5374    8.1951   25.3224 H           1 Y5H       0.0340
     49 H18        -1.2034    8.2252   25.1783 H           1 Y5H       0.0340
     50 H19        -0.9167    9.1593   27.7732 H           1 Y5H       0.0816
     51 H20         0.5837    8.3272   27.6135 H           1 Y5H       0.0816
     52 H21        -1.3794    5.8406   29.4492 H           1 Y5H       0.0778
     53 H22        -1.0945    7.5503   29.7583 H           1 Y5H       0.0778
     54 H23         0.2332    6.5048   29.2369 H           1 Y5H       0.0778
     55 H24        -0.9816    5.9796   25.7781 H           1 Y5H       0.0778
     56 H25        -1.0518    4.9298   27.1764 H           1 Y5H       0.0778
     57 H26         0.4282    5.8156   26.8167 H           1 Y5H       0.0778
     58 H27        -3.0102    7.9741   28.2202 H           1 Y5H       0.0778
     59 H28        -3.1601    6.2702   27.7860 H           1 Y5H       0.0778
     60 H29        -2.9389    7.4854   26.5356 H           1 Y5H       0.0778
@<TRIPOS>BOND
     1     1     2   1
     2     2     3   2
     3     2     5   1
     4     3     4   1
     5     4     6   2
     6     5     6   1
     7     6     7   1
     8     7     8   2
     9     7     9   1
    10     8    11   1
    11     9    10   1
    12    10    11   2
    13    11    12   1
    14    12    13   1
    15    12    19   1
    16    13    14   1
    17    13    17   1
    18    14    15   1
    19    14    18   1
    20    15    16   1
    21    16    17   1
    22    18    19   1
    23    18    22   1
    24    19    20   1
    25    20    21   2
    26    20    24  am
    27    22    23   2
    28    22    24  am
    29    24    25   1
    30    25    26   1
    31    26    27   1
    32    27    28   1
    33    28    29   1
    34    28    30   1
    35    28    31   1
    36     3    32   1
    37     4    33   1
    38    10    34   1
    39    12    35   1
    40    13    36   1
    41    14    37   1
    42    15    38   1
    43    15    39   1
    44    16    40   1
    45    16    41   1
    46    17    42   1
    47    17    43   1
    48    18    44   1
    49    19    45   1
    50    25    46   1
    51    25    47   1
    52    26    48   1
    53    26    49   1
    54    27    50   1
    55    27    51   1
    56    29    52   1
    57    29    53   1
    58    29    54   1
    59    30    55   1
    60    30    56   1
    61    30    57   1
    62    31    58   1
    63    31    59   1
    64    31    60   1
@<TRIPOS>SUBSTRUCTURE
     1  Y5H      1

