@<TRIPOS>MOLECULE
2y5h_ligand_067
    60    64
SMALL
GAST_HUCK
****
This file was generated by PARSER (from files_GN.cpp)

@<TRIPOS>ATOM
      1 CL1        -6.3345   18.9779   26.1488 Cl          1 Y5H      -0.0522
      2 C25        -6.7066   17.4138   25.6356 C.2         1 Y5H       0.0990
      3 C24        -7.5537   16.5116   26.2796 C.2         1 Y5H      -0.0555
      4 C22        -7.6679   15.2646   25.6405 C.2         1 Y5H      -0.0588
      5 S1         -6.0922   16.6319   24.2332 S.3         1 Y5H      -0.0195
      6 C20        -6.9146   15.1380   24.4660 C.2         1 Y5H       0.0881
      7 C17        -6.8251   14.0020   23.6494 C.2         1 Y5H       0.1971
      8 N16        -6.1382   13.9248   22.4958 N.2         1 Y5H      -0.3009
      9 O10        -7.4016   12.8094   23.9256 O.3         1 Y5H      -0.2447
     10 C9         -7.0681   11.9794   22.9212 C.2         1 Y5H       0.0987
     11 C4         -6.2626   12.6725   22.0231 C.2         1 Y5H       0.0610
     12 C1         -5.6320   12.1858   20.7622 C.3         1 Y5H       0.0342
     13 N3         -6.0497   10.7897   20.4315 N.4         1 Y5H       0.2526
     14 C7         -4.9997    9.8754   20.9138 C.3         1 Y5H       0.0038
     15 C14        -5.1187    8.5832   20.0642 C.3         1 Y5H      -0.0022
     16 C15        -6.2228    8.8943   19.0375 C.3         1 Y5H      -0.0072
     17 C8         -6.2813   10.4292   19.0146 C.3         1 Y5H      -0.0298
     18 C5         -3.6777   10.6769   20.7617 C.3         1 Y5H       0.1231
     19 C2         -4.0660   12.1651   20.7670 C.3         1 Y5H       0.1287
     20 C6         -3.3131   12.6549   21.9092 C.2         1 Y5H       0.2198
     21 O13        -3.2782   13.8431   22.2010 O.2         1 Y5H      -0.3852
     22 C11        -2.7978   10.5729   21.8831 C.2         1 Y5H       0.2184
     23 O18        -2.2734    9.5066   22.1594 O.2         1 Y5H      -0.3853
     24 N12        -2.6250   11.7073   22.5285 N.am        1 Y5H      -0.1843
     25 C19        -1.7722   11.8588   23.6916 C.3         1 Y5H       0.0635
     26 C21        -2.3336   11.1592   24.9709 C.3         1 Y5H       0.0123
     27 C23        -1.2485   10.7001   26.0140 C.3         1 Y5H      -0.0286
     28 N29        -0.9496    9.2143   26.1906 N.4         1 Y5H       0.2369
     29 C32        -0.5262    8.5910   24.8882 C.3         1 Y5H      -0.0418
     30 C31        -2.1432    8.4827   26.7516 C.3         1 Y5H      -0.0418
     31 C30         0.1873    9.0442   27.1771 C.3         1 Y5H      -0.0418
     32 H1         -8.0454   16.7367   27.1446 H           1 Y5H       0.0446
     33 H2         -8.2553   14.5136   26.0109 H           1 Y5H       0.0483
     34 H3         -7.3603   11.0062   22.8547 H           1 Y5H       0.0892
     35 H4         -5.9835   12.8605   19.9747 H           1 Y5H       0.1004
     36 H5         -6.9202   10.5669   20.9215 H           1 Y5H       0.2053
     37 H6         -5.2012    9.6445   21.9667 H           1 Y5H       0.0882
     38 H7         -5.3979    7.7271   20.6867 H           1 Y5H       0.0323
     39 H8         -4.1805    8.3442   19.5549 H           1 Y5H       0.0323
     40 H9         -7.1789    8.4908   19.3842 H           1 Y5H       0.0319
     41 H10        -5.9962    8.4826   18.0517 H           1 Y5H       0.0319
     42 H11        -5.5005   10.8289   18.3588 H           1 Y5H       0.0815
     43 H12        -7.2558   10.7822   18.6724 H           1 Y5H       0.0815
     44 H13        -3.1465   10.4313   19.8345 H           1 Y5H       0.0632
     45 H14        -3.6909   12.6525   19.8608 H           1 Y5H       0.0648
     46 H15        -1.6102   12.9139   23.9283 H           1 Y5H       0.0578
     47 H16        -0.7902   11.4442   23.4458 H           1 Y5H       0.0578
     48 H17        -2.9472   10.3153   24.6760 H           1 Y5H       0.0340
     49 H18        -3.0142   11.8699   25.4568 H           1 Y5H       0.0340
     50 H19        -1.5617   11.0984   26.9846 H           1 Y5H       0.0816
     51 H20        -0.3176   11.2213   25.7747 H           1 Y5H       0.0816
     52 H21        -0.2419    7.5446   25.0096 H           1 Y5H       0.0778
     53 H22         0.3254    9.1156   24.4494 H           1 Y5H       0.0778
     54 H23        -1.3331    8.6137   24.1742 H           1 Y5H       0.0778
     55 H24        -2.4458    8.8989   27.7160 H           1 Y5H       0.0778
     56 H25        -1.9309    7.4218   26.9035 H           1 Y5H       0.0778
     57 H26        -3.0029    8.5437   26.0909 H           1 Y5H       0.0778
     58 H27         1.1083    9.5239   26.8266 H           1 Y5H       0.0778
     59 H28         0.4186    7.9879   27.3536 H           1 Y5H       0.0778
     60 H29        -0.0583    9.4797   28.1482 H           1 Y5H       0.0778
@<TRIPOS>BOND
     1     1     2   1
     2     2     3   2
     3     2     5   1
     4     3     4   1
     5     4     6   2
     6     5     6   1
     7     6     7   1
     8     7     8   2
     9     7     9   1
    10     8    11   1
    11     9    10   1
    12    10    11   2
    13    11    12   1
    14    12    13   1
    15    12    19   1
    16    13    14   1
    17    13    17   1
    18    14    15   1
    19    14    18   1
    20    15    16   1
    21    16    17   1
    22    18    19   1
    23    18    22   1
    24    19    20   1
    25    20    21   2
    26    20    24  am
    27    22    23   2
    28    22    24  am
    29    24    25   1
    30    25    26   1
    31    26    27   1
    32    27    28   1
    33    28    29   1
    34    28    30   1
    35    28    31   1
    36     3    32   1
    37     4    33   1
    38    10    34   1
    39    12    35   1
    40    13    36   1
    41    14    37   1
    42    15    38   1
    43    15    39   1
    44    16    40   1
    45    16    41   1
    46    17    42   1
    47    17    43   1
    48    18    44   1
    49    19    45   1
    50    25    46   1
    51    25    47   1
    52    26    48   1
    53    26    49   1
    54    27    50   1
    55    27    51   1
    56    29    52   1
    57    29    53   1
    58    29    54   1
    59    30    55   1
    60    30    56   1
    61    30    57   1
    62    31    58   1
    63    31    59   1
    64    31    60   1
@<TRIPOS>SUBSTRUCTURE
     1  Y5H      1

