@<TRIPOS>MOLECULE
2y5h_ligand_003
    60    64
SMALL
GAST_HUCK
****
This file was generated by PARSER (from files_GN.cpp)

@<TRIPOS>ATOM
      1 CL1        -1.5083   17.7141   11.2868 Cl          1 Y5H      -0.0522
      2 C25        -0.9403   16.5664   12.3855 C.2         1 Y5H       0.0990
      3 C24         0.1919   15.7607   12.2422 C.2         1 Y5H      -0.0555
      4 C22         0.4201   14.8865   13.3214 C.2         1 Y5H      -0.0588
      5 S1         -1.6636   16.1810   13.8961 S.3         1 Y5H      -0.0195
      6 C20        -0.5197   14.9801   14.3573 C.2         1 Y5H       0.0881
      7 C17        -0.5389   14.2324   15.5476 C.2         1 Y5H       0.1971
      8 N16        -1.4263   14.3790   16.5510 N.2         1 Y5H      -0.3009
      9 O10         0.3296   13.2429   15.8441 O.3         1 Y5H      -0.2447
     10 C9         -0.0324   12.7630   17.0499 C.2         1 Y5H       0.0987
     11 C4         -1.1439   13.4689   17.4966 C.2         1 Y5H       0.0610
     12 C1         -1.9026   13.2911   18.7596 C.3         1 Y5H       0.0342
     13 N3         -1.3347   12.2709   19.6827 N.4         1 Y5H       0.2526
     14 C7         -2.4104   11.8403   20.5926 C.3         1 Y5H       0.0038
     15 C14        -2.2085   12.6828   21.8652 C.3         1 Y5H      -0.0022
     16 C15        -0.6835   12.8076   21.9743 C.3         1 Y5H      -0.0072
     17 C8         -0.1754   12.6770   20.5244 C.3         1 Y5H      -0.0298
     18 C5         -3.7461   12.0387   19.8294 C.3         1 Y5H       0.1231
     19 C2         -3.3893   12.8715   18.5843 C.3         1 Y5H       0.1287
     20 C6         -3.7503   11.9676   17.5136 C.2         1 Y5H       0.2198
     21 O13        -3.7131   12.3156   16.3377 O.2         1 Y5H      -0.3852
     22 C11        -4.3114   10.8353   19.2539 C.2         1 Y5H       0.2184
     23 O18        -4.8231    9.9692   19.9558 O.2         1 Y5H      -0.3853
     24 N12        -4.2659   10.8131   17.9305 N.am        1 Y5H      -0.1843
     25 C19        -4.8513    9.8288   17.0175 C.3         1 Y5H       0.0635
     26 C21        -5.0252    8.3152   17.3711 C.3         1 Y5H       0.0123
     27 C23        -6.3552    7.8495   18.0782 C.3         1 Y5H      -0.0286
     28 N29        -6.9202    6.4423   17.8144 N.4         1 Y5H       0.2369
     29 C32        -7.2607    5.7811   19.1465 C.3         1 Y5H      -0.0418
     30 C31        -5.9403    5.5234   17.1021 C.3         1 Y5H      -0.0418
     31 C30        -8.1963    6.5159   17.0051 C.3         1 Y5H      -0.0418
     32 H1          0.8015   15.7994   11.4249 H           1 Y5H       0.0446
     33 H2          1.2159   14.2452   13.3416 H           1 Y5H       0.0483
     34 H3          0.4426   12.0020   17.5306 H           1 Y5H       0.0892
     35 H4         -1.8961   14.2629   19.2610 H           1 Y5H       0.1004
     36 H5         -1.0659   11.4660   19.1104 H           1 Y5H       0.2053
     37 H6         -2.2634   10.7847   20.8415 H           1 Y5H       0.0882
     38 H7         -2.6368   12.2015   22.7468 H           1 Y5H       0.0323
     39 H8         -2.6495   13.6808   21.7599 H           1 Y5H       0.0323
     40 H9         -0.2883   11.9910   22.5873 H           1 Y5H       0.0319
     41 H10        -0.3861   13.7570   22.4288 H           1 Y5H       0.0319
     42 H11         0.2781   13.6189   20.1892 H           1 Y5H       0.0815
     43 H12         0.5906   11.9076   20.4695 H           1 Y5H       0.0815
     44 H13        -4.4987   12.5360   20.4369 H           1 Y5H       0.0632
     45 H14        -4.0319   13.7536   18.5196 H           1 Y5H       0.0648
     46 H15        -4.2123    9.7985   16.1184 H           1 Y5H       0.0578
     47 H16        -5.8295   10.2046   16.6704 H           1 Y5H       0.0578
     48 H17        -4.1864    7.9829   18.0038 H           1 Y5H       0.0340
     49 H18        -4.9634    7.7693   16.4139 H           1 Y5H       0.0340
     50 H19        -7.1472    8.5987   17.8724 H           1 Y5H       0.0816
     51 H20        -6.1608    7.9616   19.1569 H           1 Y5H       0.0816
     52 H21        -7.7510    4.8072   19.0261 H           1 Y5H       0.0778
     53 H22        -7.9329    6.4166   19.7359 H           1 Y5H       0.0778
     54 H23        -6.3602    5.6126   19.7361 H           1 Y5H       0.0778
     55 H24        -5.8160    5.8061   16.0511 H           1 Y5H       0.0778
     56 H25        -6.2638    4.4684   17.1118 H           1 Y5H       0.0778
     57 H26        -4.9539    5.5665   17.5782 H           1 Y5H       0.0778
     58 H27        -8.9841    7.0476   17.5532 H           1 Y5H       0.0778
     59 H28        -8.5897    5.5189   16.7561 H           1 Y5H       0.0778
     60 H29        -8.0270    7.0536   16.0610 H           1 Y5H       0.0778
@<TRIPOS>BOND
     1     1     2   1
     2     2     3   2
     3     2     5   1
     4     3     4   1
     5     4     6   2
     6     5     6   1
     7     6     7   1
     8     7     8   2
     9     7     9   1
    10     8    11   1
    11     9    10   1
    12    10    11   2
    13    11    12   1
    14    12    13   1
    15    12    19   1
    16    13    14   1
    17    13    17   1
    18    14    15   1
    19    14    18   1
    20    15    16   1
    21    16    17   1
    22    18    19   1
    23    18    22   1
    24    19    20   1
    25    20    21   2
    26    20    24  am
    27    22    23   2
    28    22    24  am
    29    24    25   1
    30    25    26   1
    31    26    27   1
    32    27    28   1
    33    28    29   1
    34    28    30   1
    35    28    31   1
    36     3    32   1
    37     4    33   1
    38    10    34   1
    39    12    35   1
    40    13    36   1
    41    14    37   1
    42    15    38   1
    43    15    39   1
    44    16    40   1
    45    16    41   1
    46    17    42   1
    47    17    43   1
    48    18    44   1
    49    19    45   1
    50    25    46   1
    51    25    47   1
    52    26    48   1
    53    26    49   1
    54    27    50   1
    55    27    51   1
    56    29    52   1
    57    29    53   1
    58    29    54   1
    59    30    55   1
    60    30    56   1
    61    30    57   1
    62    31    58   1
    63    31    59   1
    64    31    60   1
@<TRIPOS>SUBSTRUCTURE
     1  Y5H      1

