@<TRIPOS>MOLECULE
2y5h_ligand_031
    60    64
SMALL
GAST_HUCK
****
This file was generated by PARSER (from files_GN.cpp)

@<TRIPOS>ATOM
      1 CL1        -9.6397   16.4194   25.2740 Cl          1 Y5H      -0.0522
      2 C25        -8.8798   15.4648   24.1074 C.2         1 Y5H       0.0990
      3 C24        -9.4057   14.3331   23.4781 C.2         1 Y5H      -0.0555
      4 C22        -8.5422   13.7364   22.5457 C.2         1 Y5H      -0.0588
      5 S1         -7.3044   15.7198   23.4755 S.3         1 Y5H      -0.0195
      6 C20        -7.3049   14.3795   22.3988 C.2         1 Y5H       0.0881
      7 C17        -6.2556   13.9944   21.5573 C.2         1 Y5H       0.1971
      8 N16        -5.0779   14.6370   21.4409 N.2         1 Y5H      -0.3009
      9 O10        -6.2686   12.9000   20.7622 O.3         1 Y5H      -0.2447
     10 C9         -5.0701   12.8579   20.1497 C.2         1 Y5H       0.0987
     11 C4         -4.3142   13.9435   20.5826 C.2         1 Y5H       0.0610
     12 C1         -2.9276   14.3227   20.2066 C.3         1 Y5H       0.0342
     13 N3         -2.2457   13.3322   19.3222 N.4         1 Y5H       0.2526
     14 C7         -0.7954   13.5711   19.4278 C.3         1 Y5H       0.0038
     15 C14        -0.4604   14.4937   18.2393 C.3         1 Y5H      -0.0022
     16 C15        -1.3916   13.9803   17.1280 C.3         1 Y5H      -0.0072
     17 C8         -2.5948   13.3683   17.8759 C.3         1 Y5H      -0.0298
     18 C5         -0.5469   14.1760   20.8340 C.3         1 Y5H       0.1231
     19 C2         -1.9346   14.5425   21.3878 C.3         1 Y5H       0.1287
     20 C6         -2.0300   13.6740   22.5461 C.2         1 Y5H       0.2198
     21 O13        -3.0026   13.6930   23.2907 O.2         1 Y5H      -0.3852
     22 C11        -0.0598   13.2224   21.8020 C.2         1 Y5H       0.2184
     23 O18         1.0689   12.7464   21.7278 O.2         1 Y5H      -0.3853
     24 N12        -0.9362   12.9662   22.7618 N.am        1 Y5H      -0.1843
     25 C19        -0.7217   12.0612   23.8667 C.3         1 Y5H       0.0635
     26 C21        -0.6736   10.5729   23.4242 C.3         1 Y5H       0.0123
     27 C23        -1.2629    9.5444   24.4422 C.3         1 Y5H      -0.0286
     28 N29        -0.5605    9.2211   25.7736 N.4         1 Y5H       0.2369
     29 C32         0.8139    9.8207   25.9218 C.3         1 Y5H      -0.0418
     30 C31        -0.3998    7.7204   25.9134 C.3         1 Y5H      -0.0418
     31 C30        -1.3952    9.7052   26.9381 C.3         1 Y5H      -0.0418
     32 H1        -10.3388   13.9692   23.6769 H           1 Y5H       0.0446
     33 H2         -8.8012   12.8989   22.0184 H           1 Y5H       0.0483
     34 H3         -4.7834   12.1406   19.4814 H           1 Y5H       0.0892
     35 H4         -3.0049   15.2774   19.6789 H           1 Y5H       0.1004
     36 H5         -2.4393   12.3947   19.6888 H           1 Y5H       0.2053
     37 H6         -0.2616   12.6213   19.2933 H           1 Y5H       0.0882
     38 H7          0.5917   14.4240   17.9527 H           1 Y5H       0.0323
     39 H8         -0.7008   15.5376   18.4704 H           1 Y5H       0.0323
     40 H9         -0.8809   13.2109   16.5411 H           1 Y5H       0.0319
     41 H10        -1.6974   14.7917   16.4636 H           1 Y5H       0.0319
     42 H11        -3.5034   13.9457   17.6808 H           1 Y5H       0.0815
     43 H12        -2.7730   12.3467   17.5332 H           1 Y5H       0.0815
     44 H13         0.1196   15.0423   20.8021 H           1 Y5H       0.0632
     45 H14        -1.9662   15.5823   21.7240 H           1 Y5H       0.0648
     46 H15        -1.4962   12.1888   24.6192 H           1 Y5H       0.0578
     47 H16         0.2127   12.3338   24.3385 H           1 Y5H       0.0578
     48 H17         0.3432   10.2872   23.1648 H           1 Y5H       0.0340
     49 H18        -1.2604   10.4731   22.4978 H           1 Y5H       0.0340
     50 H19        -1.3776    8.6334   23.8478 H           1 Y5H       0.0816
     51 H20        -2.2980    9.8629   24.6139 H           1 Y5H       0.0816
     52 H21         1.2688    9.5727   26.8701 H           1 Y5H       0.0778
     53 H22         0.7878   10.9001   25.8684 H           1 Y5H       0.0778
     54 H23         1.4946    9.4660   25.1360 H           1 Y5H       0.0778
     55 H24        -1.3652    7.2125   25.8441 H           1 Y5H       0.0778
     56 H25         0.0466    7.4393   26.8669 H           1 Y5H       0.0778
     57 H26         0.2361    7.3189   25.1166 H           1 Y5H       0.0778
     58 H27        -1.5558   10.7887   26.8791 H           1 Y5H       0.0778
     59 H28        -0.9378    9.4865   27.8966 H           1 Y5H       0.0778
     60 H29        -2.3890    9.2327   26.9331 H           1 Y5H       0.0778
@<TRIPOS>BOND
     1     1     2   1
     2     2     3   2
     3     2     5   1
     4     3     4   1
     5     4     6   2
     6     5     6   1
     7     6     7   1
     8     7     8   2
     9     7     9   1
    10     8    11   1
    11     9    10   1
    12    10    11   2
    13    11    12   1
    14    12    13   1
    15    12    19   1
    16    13    14   1
    17    13    17   1
    18    14    15   1
    19    14    18   1
    20    15    16   1
    21    16    17   1
    22    18    19   1
    23    18    22   1
    24    19    20   1
    25    20    21   2
    26    20    24  am
    27    22    23   2
    28    22    24  am
    29    24    25   1
    30    25    26   1
    31    26    27   1
    32    27    28   1
    33    28    29   1
    34    28    30   1
    35    28    31   1
    36     3    32   1
    37     4    33   1
    38    10    34   1
    39    12    35   1
    40    13    36   1
    41    14    37   1
    42    15    38   1
    43    15    39   1
    44    16    40   1
    45    16    41   1
    46    17    42   1
    47    17    43   1
    48    18    44   1
    49    19    45   1
    50    25    46   1
    51    25    47   1
    52    26    48   1
    53    26    49   1
    54    27    50   1
    55    27    51   1
    56    29    52   1
    57    29    53   1
    58    29    54   1
    59    30    55   1
    60    30    56   1
    61    30    57   1
    62    31    58   1
    63    31    59   1
    64    31    60   1
@<TRIPOS>SUBSTRUCTURE
     1  Y5H      1

