@<TRIPOS>MOLECULE
2y5h_ligand_084
    60    64
SMALL
GAST_HUCK
****
This file was generated by PARSER (from files_GN.cpp)

@<TRIPOS>ATOM
      1 CL1        -3.6309   12.7714   14.5089 Cl          1 Y5H      -0.0522
      2 C25        -2.9104   12.9310   16.0268 C.2         1 Y5H       0.0990
      3 C24        -1.5959   13.3193   16.2930 C.2         1 Y5H      -0.0555
      4 C22        -1.2662   13.3514   17.6585 C.2         1 Y5H      -0.0588
      5 S1         -3.6720   12.6236   17.5358 S.3         1 Y5H      -0.0195
      6 C20        -2.3108   12.9930   18.5216 C.2         1 Y5H       0.0881
      7 C17        -2.2663   12.9419   19.9213 C.2         1 Y5H       0.1971
      8 N16        -3.3026   12.6297   20.7227 N.2         1 Y5H      -0.3009
      9 O10        -1.1658   13.2030   20.6626 O.3         1 Y5H      -0.2447
     10 C9         -1.5262   13.0530   21.9531 C.2         1 Y5H       0.0987
     11 C4         -2.8670   12.6848   21.9902 C.2         1 Y5H       0.0610
     12 C1         -3.6987   12.4334   23.1931 C.3         1 Y5H       0.0342
     13 N3         -3.5395   13.5155   24.2059 N.4         1 Y5H       0.2526
     14 C7         -3.9143   12.9555   25.5153 C.3         1 Y5H       0.0038
     15 C14        -5.3777   13.3864   25.7327 C.3         1 Y5H      -0.0022
     16 C15        -5.4074   14.7925   25.1181 C.3         1 Y5H      -0.0072
     17 C8         -4.3354   14.7556   24.0080 C.3         1 Y5H      -0.0298
     18 C5         -3.6644   11.4265   25.4345 C.3         1 Y5H       0.1231
     19 C2         -3.4420   11.0974   23.9467 C.3         1 Y5H       0.1287
     20 C6         -2.1093   10.5406   23.9529 C.2         1 Y5H       0.2198
     21 O13        -1.5982   10.0826   22.9409 O.2         1 Y5H      -0.3852
     22 C11        -2.4208   11.0142   26.0314 C.2         1 Y5H       0.2184
     23 O18        -2.2207   11.1333   27.2328 O.2         1 Y5H      -0.3853
     24 N12        -1.5568   10.5350   25.1565 N.am        1 Y5H      -0.1843
     25 C19        -0.2516    9.9906   25.4620 C.3         1 Y5H       0.0635
     26 C21        -0.3323    8.4861   25.8558 C.3         1 Y5H       0.0123
     27 C23        -0.4629    8.1925   27.3924 C.3         1 Y5H      -0.0286
     28 N29        -1.1557    6.8928   27.7998 N.4         1 Y5H       0.2369
     29 C32        -0.8453    6.5854   29.2461 C.3         1 Y5H      -0.0418
     30 C31        -0.6865    5.7188   26.9717 C.3         1 Y5H      -0.0418
     31 C30        -2.6525    7.0544   27.6734 C.3         1 Y5H      -0.0418
     32 H1         -0.9277   13.5567   15.5572 H           1 Y5H       0.0446
     33 H2         -0.3371   13.6196   17.9899 H           1 Y5H       0.0483
     34 H3         -0.9114   13.1863   22.7576 H           1 Y5H       0.0892
     35 H4         -4.7459   12.3970   22.8691 H           1 Y5H       0.1004
     36 H5         -2.5504   13.7673   24.2557 H           1 Y5H       0.2053
     37 H6         -3.2941   13.4227   26.2907 H           1 Y5H       0.0882
     38 H7         -5.6450   13.3961   26.7923 H           1 Y5H       0.0323
     39 H8         -6.0620   12.7261   25.1934 H           1 Y5H       0.0323
     40 H9         -5.1382   15.5346   25.8753 H           1 Y5H       0.0319
     41 H10        -6.3960   15.0326   24.7217 H           1 Y5H       0.0319
     42 H11        -4.8024   14.7977   23.0210 H           1 Y5H       0.0815
     43 H12        -3.6715   15.6164   24.0972 H           1 Y5H       0.0815
     44 H13        -4.4874   10.8440   25.8634 H           1 Y5H       0.0632
     45 H14        -4.1439   10.3272   23.6119 H           1 Y5H       0.0648
     46 H15         0.2379   10.5587   26.2538 H           1 Y5H       0.0578
     47 H16         0.3990   10.0855   24.5862 H           1 Y5H       0.0578
     48 H17         0.5719    7.9881   25.4900 H           1 Y5H       0.0340
     49 H18        -1.1537    8.0439   25.2902 H           1 Y5H       0.0340
     50 H19        -0.9704    9.0286   27.8862 H           1 Y5H       0.0816
     51 H20         0.5609    8.2120   27.7836 H           1 Y5H       0.0816
     52 H21        -1.3561    5.6806   29.5910 H           1 Y5H       0.0778
     53 H22        -1.1529    7.4043   29.9021 H           1 Y5H       0.0778
     54 H23         0.2256    6.4187   29.3914 H           1 Y5H       0.0778
     55 H24        -1.0006    5.7991   25.9265 H           1 Y5H       0.0778
     56 H25        -1.0922    4.7736   27.3530 H           1 Y5H       0.0778
     57 H26         0.4068    5.6467   26.9899 H           1 Y5H       0.0778
     58 H27        -3.0356    7.8325   28.3419 H           1 Y5H       0.0778
     59 H28        -3.1811    6.1307   27.9161 H           1 Y5H       0.0778
     60 H29        -2.9427    7.3332   26.6623 H           1 Y5H       0.0778
@<TRIPOS>BOND
     1     1     2   1
     2     2     3   2
     3     2     5   1
     4     3     4   1
     5     4     6   2
     6     5     6   1
     7     6     7   1
     8     7     8   2
     9     7     9   1
    10     8    11   1
    11     9    10   1
    12    10    11   2
    13    11    12   1
    14    12    13   1
    15    12    19   1
    16    13    14   1
    17    13    17   1
    18    14    15   1
    19    14    18   1
    20    15    16   1
    21    16    17   1
    22    18    19   1
    23    18    22   1
    24    19    20   1
    25    20    21   2
    26    20    24  am
    27    22    23   2
    28    22    24  am
    29    24    25   1
    30    25    26   1
    31    26    27   1
    32    27    28   1
    33    28    29   1
    34    28    30   1
    35    28    31   1
    36     3    32   1
    37     4    33   1
    38    10    34   1
    39    12    35   1
    40    13    36   1
    41    14    37   1
    42    15    38   1
    43    15    39   1
    44    16    40   1
    45    16    41   1
    46    17    42   1
    47    17    43   1
    48    18    44   1
    49    19    45   1
    50    25    46   1
    51    25    47   1
    52    26    48   1
    53    26    49   1
    54    27    50   1
    55    27    51   1
    56    29    52   1
    57    29    53   1
    58    29    54   1
    59    30    55   1
    60    30    56   1
    61    30    57   1
    62    31    58   1
    63    31    59   1
    64    31    60   1
@<TRIPOS>SUBSTRUCTURE
     1  Y5H      1

