@<TRIPOS>MOLECULE
2y5h_ligand_085
    60    64
SMALL
GAST_HUCK
****
This file was generated by PARSER (from files_GN.cpp)

@<TRIPOS>ATOM
      1 CL1        -7.1738    9.1937   13.1297 Cl          1 Y5H      -0.0522
      2 C25        -6.0870    9.9481   14.1798 C.2         1 Y5H       0.0990
      3 C24        -4.7655   10.3009   13.8964 C.2         1 Y5H      -0.0555
      4 C22        -4.0820   10.9066   14.9658 C.2         1 Y5H      -0.0588
      5 S1         -6.3909   10.4080   15.8072 S.3         1 Y5H      -0.0195
      6 C20        -4.8309   11.0616   16.1397 C.2         1 Y5H       0.0881
      7 C17        -4.4176   11.6659   17.3423 C.2         1 Y5H       0.1971
      8 N16        -5.1882   11.8553   18.4297 N.2         1 Y5H      -0.3009
      9 O10        -3.1763   12.1664   17.5586 O.3         1 Y5H      -0.2447
     10 C9         -3.1746   12.6480   18.8146 C.2         1 Y5H       0.0987
     11 C4         -4.4418   12.4662   19.3647 C.2         1 Y5H       0.0610
     12 C1         -4.9497   12.9065   20.6924 C.3         1 Y5H       0.0342
     13 N3         -4.6076   14.3389   20.9271 N.4         1 Y5H       0.2526
     14 C7         -3.3953   14.4202   21.7701 C.3         1 Y5H       0.0038
     15 C14        -3.4965   15.7457   22.5640 C.3         1 Y5H      -0.0022
     16 C15        -4.8275   16.3709   22.1294 C.3         1 Y5H      -0.0072
     17 C8         -5.6321   15.1812   21.5878 C.3         1 Y5H      -0.0298
     18 C5         -3.3824   13.1082   22.6052 C.3         1 Y5H       0.1231
     19 C2         -4.4062   12.1675   21.9510 C.3         1 Y5H       0.1287
     20 C6         -3.6544   10.9449   21.7869 C.2         1 Y5H       0.2198
     21 O13        -4.1705    9.9317   21.3417 O.2         1 Y5H      -0.3852
     22 C11        -2.1766   12.3114   22.5624 C.2         1 Y5H       0.2184
     23 O18        -1.1046   12.7600   22.9483 O.2         1 Y5H      -0.3853
     24 N12        -2.3878   11.0654   22.1659 N.am        1 Y5H      -0.1843
     25 C19        -1.3905   10.0136   22.0883 C.3         1 Y5H       0.0635
     26 C21        -0.5202    9.7596   23.3557 C.3         1 Y5H       0.0123
     27 C23        -1.2914    9.7047   24.7064 C.3         1 Y5H      -0.0286
     28 N29        -0.5438    9.2003   25.9356 N.4         1 Y5H       0.2369
     29 C32         0.8366    9.8090   26.0366 C.3         1 Y5H      -0.0418
     30 C31        -0.4128    7.6990   25.9280 C.3         1 Y5H      -0.0418
     31 C30        -1.3207    9.5975   27.1728 C.3         1 Y5H      -0.0418
     32 H1         -4.3319   10.1391   12.9886 H           1 Y5H       0.0446
     33 H2         -3.1166   11.2328   14.8836 H           1 Y5H       0.0483
     34 H3         -2.3770   13.1064   19.2466 H           1 Y5H       0.0892
     35 H4         -6.0394   12.7888   20.6689 H           1 Y5H       0.1004
     36 H5         -4.4002   14.7819   20.0316 H           1 Y5H       0.2053
     37 H6         -2.5246   14.4690   21.1150 H           1 Y5H       0.0882
     38 H7         -2.6626   16.4057   22.3241 H           1 Y5H       0.0323
     39 H8         -3.5033   15.5642   23.6367 H           1 Y5H       0.0323
     40 H9         -4.6662   17.1024   21.3316 H           1 Y5H       0.0319
     41 H10        -5.3485   16.8489   22.9613 H           1 Y5H       0.0319
     42 H11        -6.1203   14.6458   22.4137 H           1 Y5H       0.0815
     43 H12        -6.3903   15.5097   20.8655 H           1 Y5H       0.0815
     44 H13        -3.6529   13.2929   23.6533 H           1 Y5H       0.0632
     45 H14        -5.2258   11.9834   22.6508 H           1 Y5H       0.0648
     46 H15        -0.7227   10.2731   21.2602 H           1 Y5H       0.0578
     47 H16        -1.8553    9.0611   21.8176 H           1 Y5H       0.0578
     48 H17         0.2301   10.5480   23.4058 H           1 Y5H       0.0340
     49 H18         0.0234    8.8290   23.2086 H           1 Y5H       0.0340
     50 H19        -2.1833    9.0959   24.5551 H           1 Y5H       0.0816
     51 H20        -1.6548   10.7214   24.8964 H           1 Y5H       0.0816
     52 H21         1.3281    9.5661   26.9888 H           1 Y5H       0.0778
     53 H22         0.7998   10.9023   25.9469 H           1 Y5H       0.0778
     54 H23         1.4999    9.4338   25.2496 H           1 Y5H       0.0778
     55 H24        -1.3908    7.2199   25.9032 H           1 Y5H       0.0778
     56 H25         0.0966    7.3373   26.8256 H           1 Y5H       0.0778
     57 H26         0.1473    7.3442   25.0659 H           1 Y5H       0.0778
     58 H27        -1.4331   10.6858   27.2469 H           1 Y5H       0.0778
     59 H28        -0.8291    9.2609   28.0985 H           1 Y5H       0.0778
     60 H29        -2.3296    9.1747   27.1593 H           1 Y5H       0.0778
@<TRIPOS>BOND
     1     1     2   1
     2     2     3   2
     3     2     5   1
     4     3     4   1
     5     4     6   2
     6     5     6   1
     7     6     7   1
     8     7     8   2
     9     7     9   1
    10     8    11   1
    11     9    10   1
    12    10    11   2
    13    11    12   1
    14    12    13   1
    15    12    19   1
    16    13    14   1
    17    13    17   1
    18    14    15   1
    19    14    18   1
    20    15    16   1
    21    16    17   1
    22    18    19   1
    23    18    22   1
    24    19    20   1
    25    20    21   2
    26    20    24  am
    27    22    23   2
    28    22    24  am
    29    24    25   1
    30    25    26   1
    31    26    27   1
    32    27    28   1
    33    28    29   1
    34    28    30   1
    35    28    31   1
    36     3    32   1
    37     4    33   1
    38    10    34   1
    39    12    35   1
    40    13    36   1
    41    14    37   1
    42    15    38   1
    43    15    39   1
    44    16    40   1
    45    16    41   1
    46    17    42   1
    47    17    43   1
    48    18    44   1
    49    19    45   1
    50    25    46   1
    51    25    47   1
    52    26    48   1
    53    26    49   1
    54    27    50   1
    55    27    51   1
    56    29    52   1
    57    29    53   1
    58    29    54   1
    59    30    55   1
    60    30    56   1
    61    30    57   1
    62    31    58   1
    63    31    59   1
    64    31    60   1
@<TRIPOS>SUBSTRUCTURE
     1  Y5H      1

