@<TRIPOS>MOLECULE
2y5h_ligand_057
    60    64
SMALL
GAST_HUCK
****
This file was generated by PARSER (from files_GN.cpp)

@<TRIPOS>ATOM
      1 CL1         2.2049   16.6539   22.7167 Cl          1 Y5H      -0.0522
      2 C25         1.2811   15.3219   22.2434 C.2         1 Y5H       0.0990
      3 C24         1.7488   14.0618   21.8642 C.2         1 Y5H      -0.0555
      4 C22         0.7422   13.1420   21.5235 C.2         1 Y5H      -0.0588
      5 S1         -0.4330   15.2782   22.1567 S.3         1 Y5H      -0.0195
      6 C20        -0.5589   13.6461   21.6245 C.2         1 Y5H       0.0881
      7 C17        -1.7634   12.9798   21.3792 C.2         1 Y5H       0.1971
      8 N16        -2.9628   13.4704   21.7276 N.2         1 Y5H      -0.3009
      9 O10        -1.9060   11.7534   20.8214 O.3         1 Y5H      -0.2447
     10 C9         -3.2290   11.4926   20.8043 C.2         1 Y5H       0.0987
     11 C4         -3.8927   12.5704   21.3832 C.2         1 Y5H       0.0610
     12 C1         -5.3312   12.6748   21.7442 C.3         1 Y5H       0.0342
     13 N3         -5.7190   14.1080   21.8659 N.4         1 Y5H       0.2526
     14 C7         -5.6768   14.4779   23.2928 C.3         1 Y5H       0.0038
     15 C14        -6.6343   15.6842   23.4577 C.3         1 Y5H      -0.0022
     16 C15        -7.3139   15.8463   22.0848 C.3         1 Y5H      -0.0072
     17 C8         -7.0530   14.5143   21.3688 C.3         1 Y5H      -0.0298
     18 C5         -6.0561   13.1793   24.0637 C.3         1 Y5H       0.1231
     19 C2         -5.7133   12.0197   23.1114 C.3         1 Y5H       0.1287
     20 C6         -4.6970   11.3134   23.8680 C.2         1 Y5H       0.2198
     21 O13        -4.1452   10.3075   23.4429 O.2         1 Y5H      -0.3852
     22 C11        -5.2403   12.9053   25.2174 C.2         1 Y5H       0.2184
     23 O18        -5.2394   13.6627   26.1803 O.2         1 Y5H      -0.3853
     24 N12        -4.4373   11.8621   25.0442 N.am        1 Y5H      -0.1843
     25 C19        -3.2837   11.5744   25.8787 C.3         1 Y5H       0.0635
     26 C21        -2.9956   10.1119   26.3501 C.3         1 Y5H       0.0123
     27 C23        -1.4858    9.8908   26.7276 C.3         1 Y5H      -0.0286
     28 N29        -0.5064    9.2750   25.7181 N.4         1 Y5H       0.2369
     29 C32         0.8805    9.8102   26.0005 C.3         1 Y5H      -0.0418
     30 C31        -0.8202    9.5867   24.2711 C.3         1 Y5H      -0.0418
     31 C30        -0.4717    7.7722   25.8836 C.3         1 Y5H      -0.0418
     32 H1          2.7448   13.8297   21.8418 H           1 Y5H       0.0446
     33 H2          0.9466   12.1819   21.2453 H           1 Y5H       0.0483
     34 H3         -3.6552   10.6295   20.4675 H           1 Y5H       0.0892
     35 H4         -5.9006   12.2024   20.9377 H           1 Y5H       0.1004
     36 H5         -5.0361   14.6851   21.3690 H           1 Y5H       0.2053
     37 H6         -4.6564   14.7853   23.5355 H           1 Y5H       0.0882
     38 H7         -6.0758   16.5902   23.7144 H           1 Y5H       0.0323
     39 H8         -7.3772   15.5120   24.2416 H           1 Y5H       0.0323
     40 H9         -6.8437   16.6627   21.5290 H           1 Y5H       0.0319
     41 H10        -8.3831   16.0513   22.1818 H           1 Y5H       0.0319
     42 H11        -7.8241   13.7854   21.6364 H           1 Y5H       0.0815
     43 H12        -7.0412   14.6430   20.2841 H           1 Y5H       0.0815
     44 H13        -7.1184   13.1508   24.3259 H           1 Y5H       0.0632
     45 H14        -6.5794   11.3612   22.9837 H           1 Y5H       0.0648
     46 H15        -3.3262   12.1760   26.7976 H           1 Y5H       0.0578
     47 H16        -2.4188   11.9344   25.3123 H           1 Y5H       0.0578
     48 H17        -3.2920    9.3872   25.5958 H           1 Y5H       0.0340
     49 H18        -3.6241    9.9125   27.2277 H           1 Y5H       0.0340
     50 H19        -1.4752    9.2861   27.6449 H           1 Y5H       0.0816
     51 H20        -1.1117   10.8664   27.0591 H           1 Y5H       0.0816
     52 H21         1.6371    9.3451   25.3620 H           1 Y5H       0.0778
     53 H22         1.1706    9.6357   27.0416 H           1 Y5H       0.0778
     54 H23         0.9190   10.8903   25.8191 H           1 Y5H       0.0778
     55 H24        -1.7308    9.0816   23.9371 H           1 Y5H       0.0778
     56 H25        -0.0145    9.2475   23.6072 H           1 Y5H       0.0778
     57 H26        -0.9435   10.6609   24.1101 H           1 Y5H       0.0778
     58 H27        -0.1113    7.4856   26.8770 H           1 Y5H       0.0778
     59 H28         0.1877    7.2971   25.1491 H           1 Y5H       0.0778
     60 H29        -1.4699    7.3465   25.7630 H           1 Y5H       0.0778
@<TRIPOS>BOND
     1     1     2   1
     2     2     3   2
     3     2     5   1
     4     3     4   1
     5     4     6   2
     6     5     6   1
     7     6     7   1
     8     7     8   2
     9     7     9   1
    10     8    11   1
    11     9    10   1
    12    10    11   2
    13    11    12   1
    14    12    13   1
    15    12    19   1
    16    13    14   1
    17    13    17   1
    18    14    15   1
    19    14    18   1
    20    15    16   1
    21    16    17   1
    22    18    19   1
    23    18    22   1
    24    19    20   1
    25    20    21   2
    26    20    24  am
    27    22    23   2
    28    22    24  am
    29    24    25   1
    30    25    26   1
    31    26    27   1
    32    27    28   1
    33    28    29   1
    34    28    30   1
    35    28    31   1
    36     3    32   1
    37     4    33   1
    38    10    34   1
    39    12    35   1
    40    13    36   1
    41    14    37   1
    42    15    38   1
    43    15    39   1
    44    16    40   1
    45    16    41   1
    46    17    42   1
    47    17    43   1
    48    18    44   1
    49    19    45   1
    50    25    46   1
    51    25    47   1
    52    26    48   1
    53    26    49   1
    54    27    50   1
    55    27    51   1
    56    29    52   1
    57    29    53   1
    58    29    54   1
    59    30    55   1
    60    30    56   1
    61    30    57   1
    62    31    58   1
    63    31    59   1
    64    31    60   1
@<TRIPOS>SUBSTRUCTURE
     1  Y5H      1

