@<TRIPOS>MOLECULE
2y5h_ligand_037
    60    64
SMALL
GAST_HUCK
****
This file was generated by PARSER (from files_GN.cpp)

@<TRIPOS>ATOM
      1 CL1         0.9500    9.5097   12.7823 Cl          1 Y5H      -0.0522
      2 C25         0.5457   10.9671   13.5255 C.2         1 Y5H       0.0990
      3 C24         0.6592   12.2425   12.9736 C.2         1 Y5H      -0.0555
      4 C22         0.2247   13.2825   13.8128 C.2         1 Y5H      -0.0588
      5 S1         -0.1010   11.1469   15.1064 S.3         1 Y5H      -0.0195
      6 C20        -0.2342   12.8640   15.0680 C.2         1 Y5H       0.0881
      7 C17        -0.7252   13.6721   16.1020 C.2         1 Y5H       0.1971
      8 N16        -1.1350   13.2160   17.2977 N.2         1 Y5H      -0.3009
      9 O10        -0.8769   15.0152   16.0442 O.3         1 Y5H      -0.2447
     10 C9         -1.3978   15.3942   17.2290 C.2         1 Y5H       0.0987
     11 C4         -1.5776   14.2600   18.0130 C.2         1 Y5H       0.0610
     12 C1         -2.1388   14.1875   19.3838 C.3         1 Y5H       0.0342
     13 N3         -1.2122   13.4952   20.3238 N.4         1 Y5H       0.2526
     14 C7         -2.0193   13.0668   21.4830 C.3         1 Y5H       0.0038
     15 C14        -1.8472   14.1980   22.5221 C.3         1 Y5H      -0.0022
     16 C15        -0.3866   14.6354   22.3243 C.3         1 Y5H      -0.0072
     17 C8         -0.0608   14.2749   20.8558 C.3         1 Y5H      -0.0298
     18 C5         -3.4678   12.8479   20.9615 C.3         1 Y5H       0.1231
     19 C2         -3.5029   13.4548   19.5426 C.3         1 Y5H       0.1287
     20 C6         -3.7810   12.2944   18.7322 C.2         1 Y5H       0.2198
     21 O13        -3.9492   12.3798   17.5198 O.2         1 Y5H      -0.3852
     22 C11        -3.8108   11.4697   20.7230 C.2         1 Y5H       0.2184
     23 O18        -3.9086   10.6567   21.6289 O.2         1 Y5H      -0.3853
     24 N12        -3.9660   11.1968   19.4408 N.am        1 Y5H      -0.1843
     25 C19        -4.2802    9.8913   18.9034 C.3         1 Y5H       0.0635
     26 C21        -5.7849    9.5117   19.0623 C.3         1 Y5H       0.0123
     27 C23        -6.2907    8.4269   18.0502 C.3         1 Y5H      -0.0286
     28 N29        -6.1695    6.9419   18.3829 N.4         1 Y5H       0.2369
     29 C32        -6.2989    6.1412   17.1053 C.3         1 Y5H      -0.0418
     30 C31        -7.2739    6.5111   19.3261 C.3         1 Y5H      -0.0418
     31 C30        -4.8448    6.5760   19.0028 C.3         1 Y5H      -0.0418
     32 H1          1.0194   12.4061   12.0323 H           1 Y5H       0.0446
     33 H2          0.2397   14.2623   13.5217 H           1 Y5H       0.0483
     34 H3         -1.6281   16.3560   17.4896 H           1 Y5H       0.0892
     35 H4         -2.3002   15.2159   19.7372 H           1 Y5H       0.1004
     36 H5         -0.8537   12.6573   19.8618 H           1 Y5H       0.2053
     37 H6         -1.5961   12.1434   21.8948 H           1 Y5H       0.0882
     38 H7         -2.0328   13.8466   23.5402 H           1 Y5H       0.0323
     39 H8         -2.5154   15.0355   22.3047 H           1 Y5H       0.0323
     40 H9          0.2635   14.0760   23.0054 H           1 Y5H       0.0319
     41 H10        -0.2636   15.7040   22.5180 H           1 Y5H       0.0319
     42 H11         0.1381   15.1742   20.2687 H           1 Y5H       0.0815
     43 H12         0.8329   13.6477   20.8196 H           1 Y5H       0.0815
     44 H13        -4.2173   13.3084   21.6165 H           1 Y5H       0.0632
     45 H14        -4.3353   14.1595   19.4352 H           1 Y5H       0.0648
     46 H15        -3.6451    9.1473   19.3838 H           1 Y5H       0.0578
     47 H16        -4.0183    9.8765   17.8416 H           1 Y5H       0.0578
     48 H17        -6.3705   10.4232   18.8929 H           1 Y5H       0.0340
     49 H18        -5.9862    9.1973   20.0834 H           1 Y5H       0.0340
     50 H19        -5.8050    8.6362   17.0930 H           1 Y5H       0.0816
     51 H20        -7.3482    8.6495   17.8621 H           1 Y5H       0.0816
     52 H21        -6.2647    5.0656   17.3034 H           1 Y5H       0.0778
     53 H22        -5.4827    6.3668   16.4114 H           1 Y5H       0.0778
     54 H23        -7.2394    6.3526   16.5911 H           1 Y5H       0.0778
     55 H24        -7.2357    7.0680   20.2659 H           1 Y5H       0.0778
     56 H25        -7.1913    5.4457   19.5699 H           1 Y5H       0.0778
     57 H26        -8.2624    6.6690   18.8818 H           1 Y5H       0.0778
     58 H27        -4.0090    6.9111   18.3808 H           1 Y5H       0.0778
     59 H28        -4.7503    5.4917   19.1210 H           1 Y5H       0.0778
     60 H29        -4.7300    7.0160   19.9958 H           1 Y5H       0.0778
@<TRIPOS>BOND
     1     1     2   1
     2     2     3   2
     3     2     5   1
     4     3     4   1
     5     4     6   2
     6     5     6   1
     7     6     7   1
     8     7     8   2
     9     7     9   1
    10     8    11   1
    11     9    10   1
    12    10    11   2
    13    11    12   1
    14    12    13   1
    15    12    19   1
    16    13    14   1
    17    13    17   1
    18    14    15   1
    19    14    18   1
    20    15    16   1
    21    16    17   1
    22    18    19   1
    23    18    22   1
    24    19    20   1
    25    20    21   2
    26    20    24  am
    27    22    23   2
    28    22    24  am
    29    24    25   1
    30    25    26   1
    31    26    27   1
    32    27    28   1
    33    28    29   1
    34    28    30   1
    35    28    31   1
    36     3    32   1
    37     4    33   1
    38    10    34   1
    39    12    35   1
    40    13    36   1
    41    14    37   1
    42    15    38   1
    43    15    39   1
    44    16    40   1
    45    16    41   1
    46    17    42   1
    47    17    43   1
    48    18    44   1
    49    19    45   1
    50    25    46   1
    51    25    47   1
    52    26    48   1
    53    26    49   1
    54    27    50   1
    55    27    51   1
    56    29    52   1
    57    29    53   1
    58    29    54   1
    59    30    55   1
    60    30    56   1
    61    30    57   1
    62    31    58   1
    63    31    59   1
    64    31    60   1
@<TRIPOS>SUBSTRUCTURE
     1  Y5H      1

