@<TRIPOS>MOLECULE
2y5h_ligand_048
    60    64
SMALL
GAST_HUCK
****
This file was generated by PARSER (from files_GN.cpp)

@<TRIPOS>ATOM
      1 CL1        -8.0916    7.6764   19.4777 Cl          1 Y5H      -0.0522
      2 C25        -6.5396    8.3172   19.6501 C.2         1 Y5H       0.0990
      3 C24        -5.7311    8.8192   18.6299 C.2         1 Y5H      -0.0555
      4 C22        -4.4739    9.2730   19.0615 C.2         1 Y5H      -0.0588
      5 S1         -5.6577    8.4493   21.1194 S.3         1 Y5H      -0.0195
      6 C20        -4.2409    9.1484   20.4372 C.2         1 Y5H       0.0881
      7 C17        -3.0688    9.5076   21.1249 C.2         1 Y5H       0.1971
      8 N16        -2.8702    9.4261   22.4555 N.2         1 Y5H      -0.3009
      9 O10        -1.9516    9.9738   20.5200 O.3         1 Y5H      -0.2447
     10 C9         -1.0443   10.1848   21.4919 C.2         1 Y5H       0.0987
     11 C4         -1.6175    9.8489   22.7121 C.2         1 Y5H       0.0610
     12 C1         -0.9416    9.9387   24.0394 C.3         1 Y5H       0.0342
     13 N3         -1.6800    9.1397   25.0531 N.4         1 Y5H       0.2526
     14 C7         -2.6792   10.0205   25.6882 C.3         1 Y5H       0.0038
     15 C14        -2.9862    9.3830   27.0714 C.3         1 Y5H      -0.0022
     16 C15        -1.9544    8.2494   27.2411 C.3         1 Y5H      -0.0072
     17 C8         -0.9032    8.5175   26.1512 C.3         1 Y5H      -0.0298
     18 C5         -2.0060   11.4232   25.6941 C.3         1 Y5H       0.1231
     19 C2         -0.8598   11.3626   24.6728 C.3         1 Y5H       0.1287
     20 C6         -1.1126   12.5234   23.8498 C.2         1 Y5H       0.2198
     21 O13        -0.3253   12.8286   22.9671 O.2         1 Y5H      -0.3852
     22 C11        -2.7854   12.5301   25.2037 C.2         1 Y5H       0.2184
     23 O18        -3.8048   12.8741   25.7843 O.2         1 Y5H      -0.3853
     24 N12        -2.2195   13.1687   24.1899 N.am        1 Y5H      -0.1843
     25 C19        -2.7696   14.4025   23.6556 C.3         1 Y5H       0.0635
     26 C21        -1.9840   15.2710   22.6167 C.3         1 Y5H       0.0123
     27 C23        -2.2497   14.9247   21.1207 C.3         1 Y5H      -0.0286
     28 N29        -1.4019   15.6123   20.0458 N.4         1 Y5H       0.2369
     29 C32        -1.2375   17.0850   20.3090 C.3         1 Y5H      -0.0418
     30 C31        -2.0859   15.4443   18.7072 C.3         1 Y5H      -0.0418
     31 C30        -0.0417   14.9704   19.9653 C.3         1 Y5H      -0.0418
     32 H1         -6.0271    8.8498   17.6534 H           1 Y5H       0.0446
     33 H2         -3.7908    9.6686   18.4127 H           1 Y5H       0.0483
     34 H3         -0.0960   10.5301   21.3451 H           1 Y5H       0.0892
     35 H4          0.0653    9.5251   23.9129 H           1 Y5H       0.1004
     36 H5         -2.1695    8.3837   24.5817 H           1 Y5H       0.2053
     37 H6         -3.5910   10.0319   25.0815 H           1 Y5H       0.0882
     38 H7         -4.0001    8.9697   27.0900 H           1 Y5H       0.0323
     39 H8         -2.9018   10.1105   27.8825 H           1 Y5H       0.0323
     40 H9         -2.4276    7.2780   27.0657 H           1 Y5H       0.0319
     41 H10        -1.5065    8.2562   28.2393 H           1 Y5H       0.0319
     42 H11        -0.1305    9.1909   26.5390 H           1 Y5H       0.0815
     43 H12        -0.4349    7.5873   25.8163 H           1 Y5H       0.0815
     44 H13        -1.6220   11.6636   26.6889 H           1 Y5H       0.0632
     45 H14         0.1022   11.4804   25.1873 H           1 Y5H       0.0648
     46 H15        -2.9406   15.0568   24.5149 H           1 Y5H       0.0578
     47 H16        -3.7528   14.1788   23.2420 H           1 Y5H       0.0578
     48 H17        -0.9230   15.2500   22.8509 H           1 Y5H       0.0340
     49 H18        -2.3049   16.3074   22.7554 H           1 Y5H       0.0340
     50 H19        -3.3054   15.1600   20.9524 H           1 Y5H       0.0816
     51 H20        -2.1714   13.8372   21.0105 H           1 Y5H       0.0816
     52 H21        -0.7133   17.5874   19.4865 H           1 Y5H       0.0778
     53 H22        -0.6509   17.2725   21.2087 H           1 Y5H       0.0778
     54 H23        -2.2007   17.5824   20.4317 H           1 Y5H       0.0778
     55 H24        -2.2813   14.3957   18.4808 H           1 Y5H       0.0778
     56 H25        -1.4782   15.8454   17.8875 H           1 Y5H       0.0778
     57 H26        -3.0421   15.9698   18.6783 H           1 Y5H       0.0778
     58 H27         0.5114   15.0713   20.9002 H           1 Y5H       0.0778
     59 H28         0.5702   15.4304   19.1820 H           1 Y5H       0.0778
     60 H29        -0.1112   13.9080   19.7367 H           1 Y5H       0.0778
@<TRIPOS>BOND
     1     1     2   1
     2     2     3   2
     3     2     5   1
     4     3     4   1
     5     4     6   2
     6     5     6   1
     7     6     7   1
     8     7     8   2
     9     7     9   1
    10     8    11   1
    11     9    10   1
    12    10    11   2
    13    11    12   1
    14    12    13   1
    15    12    19   1
    16    13    14   1
    17    13    17   1
    18    14    15   1
    19    14    18   1
    20    15    16   1
    21    16    17   1
    22    18    19   1
    23    18    22   1
    24    19    20   1
    25    20    21   2
    26    20    24  am
    27    22    23   2
    28    22    24  am
    29    24    25   1
    30    25    26   1
    31    26    27   1
    32    27    28   1
    33    28    29   1
    34    28    30   1
    35    28    31   1
    36     3    32   1
    37     4    33   1
    38    10    34   1
    39    12    35   1
    40    13    36   1
    41    14    37   1
    42    15    38   1
    43    15    39   1
    44    16    40   1
    45    16    41   1
    46    17    42   1
    47    17    43   1
    48    18    44   1
    49    19    45   1
    50    25    46   1
    51    25    47   1
    52    26    48   1
    53    26    49   1
    54    27    50   1
    55    27    51   1
    56    29    52   1
    57    29    53   1
    58    29    54   1
    59    30    55   1
    60    30    56   1
    61    30    57   1
    62    31    58   1
    63    31    59   1
    64    31    60   1
@<TRIPOS>SUBSTRUCTURE
     1  Y5H      1

