@<TRIPOS>MOLECULE
2yfe_ligand_027
    48    49
SMALL
GAST_HUCK
****
This file was generated by PARSER (from files_GN.cpp)

@<TRIPOS>ATOM
      1 CAB        15.1506   16.7584   44.6717 C.3         1 YFE      -0.0403
      2 CAR        16.5702   16.9315   44.3801 C.2         1 YFE      -0.0856
      3 CAC        17.0612   16.4426   43.0908 C.3         1 YFE      -0.0403
      4 CAG        17.4149   17.5184   45.2586 C.2         1 YFE      -0.1025
      5 CAN        17.0783   18.0617   46.5754 C.3         1 YFE      -0.0201
      6 CAX        18.0068   19.1707   46.9603 C.ar        1 YFE       0.0155
      7 CAW        17.6242   20.5263   46.8145 C.ar        1 YFE       0.0822
      8 CAM        18.5708   21.5464   47.0211 C.ar        1 YFE      -0.0446
      9 OAQ        16.3567   20.8704   46.4116 O.3         1 YFE      -0.3273
     10 CAA        15.6719   21.7324   47.3410 C.3         1 YFE       0.0581
     11 CAU        19.3236   18.8793   47.3996 C.ar        1 YFE       0.0914
     12 OAF        19.6622   17.5784   47.6272 O.3         1 YFE      -0.3377
     13 CAY        20.2699   19.9109   47.6346 C.ar        1 YFE       0.0231
     14 CAS        21.5837   19.5367   47.9935 C.2         1 YFE       0.0456
     15 OAE        22.1486   19.9868   49.1327 O.co2       1 YFE      -0.5694
     16 OAD        22.2754   18.6386   47.2554 O.co2       1 YFE      -0.5694
     17 CAV        19.8917   21.2729   47.4469 C.ar        1 YFE      -0.0494
     18 CAP        20.8111   22.4508   47.5703 C.3         1 YFE      -0.0147
     19 CAO        20.2925   23.5905   48.5115 C.3         1 YFE      -0.0100
     20 CAT        20.3457   24.9346   47.8684 C.ar        1 YFE      -0.0411
     21 CAK        21.5660   25.6484   47.7982 C.ar        1 YFE      -0.0602
     22 CAI        21.6373   26.8872   47.1340 C.ar        1 YFE      -0.0686
     23 CAH        20.4913   27.4259   46.5232 C.ar        1 YFE      -0.0687
     24 CAJ        19.2726   26.7282   46.5816 C.ar        1 YFE      -0.0686
     25 CAL        19.1989   25.4927   47.2521 C.ar        1 YFE      -0.0602
     26 H1         14.6277   16.1970   43.8943 H           1 YFE       0.0377
     27 H2         14.6667   17.7314   44.7582 H           1 YFE       0.0377
     28 H3         15.0280   16.2153   45.6097 H           1 YFE       0.0377
     29 H4         18.1286   16.6157   42.9358 H           1 YFE       0.0377
     30 H5         16.5268   16.9457   42.2826 H           1 YFE       0.0377
     31 H6         16.8862   15.3685   43.0076 H           1 YFE       0.0377
     32 H7         18.3807   17.5344   45.0156 H           1 YFE       0.0254
     33 H8         17.1363   17.2529   47.3077 H           1 YFE       0.0443
     34 H9         16.0470   18.4162   46.6069 H           1 YFE       0.0443
     35 H10        18.2815   22.5115   46.8430 H           1 YFE       0.0383
     36 H11        14.6395   21.8399   47.0134 H           1 YFE       0.0576
     37 H12        16.1240   22.7265   47.3596 H           1 YFE       0.0576
     38 H13        15.6653   21.3179   48.3523 H           1 YFE       0.0576
     39 H14        19.5540   17.4546   48.5952 H           1 YFE       0.2469
     40 H15        20.9635   22.8375   46.5591 H           1 YFE       0.0441
     41 H16        21.8019   22.1555   47.9133 H           1 YFE       0.0441
     42 H17        20.8928   23.6123   49.4254 H           1 YFE       0.0448
     43 H18        19.2700   23.3868   48.8437 H           1 YFE       0.0448
     44 H19        22.4127   25.2661   48.2267 H           1 YFE       0.0557
     45 H20        22.5243   27.3932   47.0882 H           1 YFE       0.0599
     46 H21        20.5460   28.3193   46.0299 H           1 YFE       0.0559
     47 H22        18.4409   27.1163   46.1315 H           1 YFE       0.0599
     48 H23        18.3049   24.9960   47.2734 H           1 YFE       0.0557
@<TRIPOS>BOND
     1     1     2   1
     2     2     3   1
     3     2     4   2
     4     4     5   1
     5     5     6   1
     6     6     7  ar
     7     6    11  ar
     8     7     8  ar
     9     7     9   1
    10     8    17  ar
    11     9    10   1
    12    11    12   1
    13    11    13  ar
    14    13    14   1
    15    13    17  ar
    16    14    15  ar
    17    14    16  ar
    18    17    18   1
    19    18    19   1
    20    19    20   1
    21    20    21  ar
    22    20    25  ar
    23    21    22  ar
    24    22    23  ar
    25    23    24  ar
    26    24    25  ar
    27     1    26   1
    28     1    27   1
    29     1    28   1
    30     3    29   1
    31     3    30   1
    32     3    31   1
    33     4    32   1
    34     5    33   1
    35     5    34   1
    36     8    35   1
    37    10    36   1
    38    10    37   1
    39    10    38   1
    40    12    39   1
    41    18    40   1
    42    18    41   1
    43    19    42   1
    44    19    43   1
    45    21    44   1
    46    22    45   1
    47    23    46   1
    48    24    47   1
    49    25    48   1
@<TRIPOS>SUBSTRUCTURE
     1  YFE      1

