@<TRIPOS>MOLECULE
2yfe_ligand_039
    48    49
SMALL
GAST_HUCK
****
This file was generated by PARSER (from files_GN.cpp)

@<TRIPOS>ATOM
      1 CAB        22.2586   25.7683   46.8949 C.3         1 YFE      -0.0403
      2 CAR        22.1439   25.1629   48.2182 C.2         1 YFE      -0.0856
      3 CAC        23.0999   25.6102   49.2345 C.3         1 YFE      -0.0403
      4 CAG        21.1888   24.2456   48.5168 C.2         1 YFE      -0.1025
      5 CAN        20.2069   23.6591   47.6068 C.3         1 YFE      -0.0201
      6 CAX        20.1296   22.1672   47.7429 C.ar        1 YFE       0.0155
      7 CAW        18.8854   21.5159   47.9390 C.ar        1 YFE       0.0822
      8 CAM        18.8316   20.1117   48.0218 C.ar        1 YFE      -0.0446
      9 OAQ        17.7183   22.2159   48.0927 O.3         1 YFE      -0.3273
     10 CAA        16.8023   22.0342   46.9967 C.3         1 YFE       0.0581
     11 CAU        21.3012   21.3686   47.6421 C.ar        1 YFE       0.0914
     12 OAF        22.4920   21.9809   47.3917 O.3         1 YFE      -0.3377
     13 CAY        21.2536   19.9488   47.7422 C.ar        1 YFE       0.0231
     14 CAS        22.4704   19.2233   47.7627 C.2         1 YFE       0.0456
     15 OAE        23.5192   19.6614   48.4960 O.co2       1 YFE      -0.5694
     16 OAD        22.6970   18.2260   46.8782 O.co2       1 YFE      -0.5694
     17 CAV        19.9875   19.3059   47.8911 C.ar        1 YFE      -0.0494
     18 CAP        19.8035   17.8174   47.9536 C.3         1 YFE      -0.0147
     19 CAO        19.8672   17.0677   46.5917 C.3         1 YFE      -0.0100
     20 CAT        18.8935   17.5136   45.5574 C.ar        1 YFE      -0.0411
     21 CAK        19.3264   17.8332   44.2394 C.ar        1 YFE      -0.0602
     22 CAI        18.4179   18.2618   43.2567 C.ar        1 YFE      -0.0686
     23 CAH        17.0478   18.3768   43.5652 C.ar        1 YFE      -0.0687
     24 CAJ        16.5965   18.0392   44.8589 C.ar        1 YFE      -0.0686
     25 CAL        17.5067   17.6123   45.8411 C.ar        1 YFE      -0.0602
     26 H1         23.0649   26.5057   46.8362 H           1 YFE       0.0377
     27 H2         21.3266   26.2788   46.6458 H           1 YFE       0.0377
     28 H3         22.4628   25.0011   46.1462 H           1 YFE       0.0377
     29 H4         22.9475   25.1434   50.2104 H           1 YFE       0.0377
     30 H5         23.0176   26.6937   49.3668 H           1 YFE       0.0377
     31 H6         24.1177   25.3749   48.9069 H           1 YFE       0.0377
     32 H7         21.1455   23.9221   49.4566 H           1 YFE       0.0254
     33 H8         20.4146   23.8824   46.5565 H           1 YFE       0.0443
     34 H9         19.2524   24.1444   47.8292 H           1 YFE       0.0443
     35 H10        17.9151   19.6751   48.1698 H           1 YFE       0.0383
     36 H11        15.9418   22.6828   47.1608 H           1 YFE       0.0576
     37 H12        16.4446   21.0022   46.9414 H           1 YFE       0.0576
     38 H13        17.2629   22.3066   46.0438 H           1 YFE       0.0576
     39 H14        22.8074   22.2866   48.2733 H           1 YFE       0.2469
     40 H15        18.8378   17.5714   48.4142 H           1 YFE       0.0441
     41 H16        20.5532   17.3956   48.6224 H           1 YFE       0.0441
     42 H17        19.6818   16.0061   46.7801 H           1 YFE       0.0448
     43 H18        20.8826   17.1374   46.2033 H           1 YFE       0.0448
     44 H19        20.3150   17.7613   43.9937 H           1 YFE       0.0557
     45 H20        18.7454   18.4926   42.3132 H           1 YFE       0.0599
     46 H21        16.3867   18.6995   42.8566 H           1 YFE       0.0559
     47 H22        15.5930   18.1083   45.0828 H           1 YFE       0.0599
     48 H23        17.1549   17.3736   46.7700 H           1 YFE       0.0557
@<TRIPOS>BOND
     1     1     2   1
     2     2     3   1
     3     2     4   2
     4     4     5   1
     5     5     6   1
     6     6     7  ar
     7     6    11  ar
     8     7     8  ar
     9     7     9   1
    10     8    17  ar
    11     9    10   1
    12    11    12   1
    13    11    13  ar
    14    13    14   1
    15    13    17  ar
    16    14    15  ar
    17    14    16  ar
    18    17    18   1
    19    18    19   1
    20    19    20   1
    21    20    21  ar
    22    20    25  ar
    23    21    22  ar
    24    22    23  ar
    25    23    24  ar
    26    24    25  ar
    27     1    26   1
    28     1    27   1
    29     1    28   1
    30     3    29   1
    31     3    30   1
    32     3    31   1
    33     4    32   1
    34     5    33   1
    35     5    34   1
    36     8    35   1
    37    10    36   1
    38    10    37   1
    39    10    38   1
    40    12    39   1
    41    18    40   1
    42    18    41   1
    43    19    42   1
    44    19    43   1
    45    21    44   1
    46    22    45   1
    47    23    46   1
    48    24    47   1
    49    25    48   1
@<TRIPOS>SUBSTRUCTURE
     1  YFE      1

