@<TRIPOS>MOLECULE
2yfe_ligand_031
    48    49
SMALL
GAST_HUCK
****
This file was generated by PARSER (from files_GN.cpp)

@<TRIPOS>ATOM
      1 CAB        18.0190   17.8114   45.1618 C.3         1 YFE      -0.0403
      2 CAR        16.6944   17.2577   44.9020 C.2         1 YFE      -0.0856
      3 CAC        16.3363   17.0869   43.4946 C.3         1 YFE      -0.0403
      4 CAG        15.8265   16.9179   45.8867 C.2         1 YFE      -0.1025
      5 CAN        16.0340   16.9736   47.3359 C.3         1 YFE      -0.0201
      6 CAX        16.1674   18.3627   47.8800 C.ar        1 YFE       0.0155
      7 CAW        15.0217   19.1871   47.9897 C.ar        1 YFE       0.0822
      8 CAM        15.1690   20.5168   48.3986 C.ar        1 YFE      -0.0446
      9 OAQ        13.7669   18.7170   47.6799 O.3         1 YFE      -0.3273
     10 CAA        12.8649   18.6228   48.8060 C.3         1 YFE       0.0581
     11 CAU        17.4245   18.8893   48.2767 C.ar        1 YFE       0.0914
     12 OAF        18.4801   18.0326   48.2598 O.3         1 YFE      -0.3377
     13 CAY        17.5947   20.2557   48.6504 C.ar        1 YFE       0.0231
     14 CAS        18.9256   20.7541   48.8410 C.2         1 YFE       0.0456
     15 OAE        20.0305   20.0787   48.4518 O.co2       1 YFE      -0.5694
     16 OAD        19.2087   22.0290   49.1856 O.co2       1 YFE      -0.5694
     17 CAV        16.4172   21.0608   48.7817 C.ar        1 YFE      -0.0494
     18 CAP        16.3467   22.4711   49.2747 C.3         1 YFE      -0.0147
     19 CAO        16.4294   23.4853   48.1097 C.3         1 YFE      -0.0100
     20 CAT        16.1794   24.8769   48.5585 C.ar        1 YFE      -0.0411
     21 CAK        17.2369   25.8085   48.6782 C.ar        1 YFE      -0.0602
     22 CAI        16.9873   27.1222   49.1148 C.ar        1 YFE      -0.0686
     23 CAH        15.6769   27.5226   49.4335 C.ar        1 YFE      -0.0687
     24 CAJ        14.6154   26.6087   49.3123 C.ar        1 YFE      -0.0686
     25 CAL        14.8651   25.2946   48.8785 C.ar        1 YFE      -0.0602
     26 H1         18.6100   17.9351   44.2491 H           1 YFE       0.0377
     27 H2         18.5822   17.1523   45.8208 H           1 YFE       0.0377
     28 H3         17.9232   18.7953   45.6186 H           1 YFE       0.0377
     29 H4         15.3443   16.6617   43.3409 H           1 YFE       0.0377
     30 H5         17.0601   16.4262   43.0122 H           1 YFE       0.0377
     31 H6         16.3661   18.0586   42.9966 H           1 YFE       0.0377
     32 H7         14.9521   16.5344   45.6033 H           1 YFE       0.0254
     33 H8         16.8984   16.3515   47.5740 H           1 YFE       0.0443
     34 H9         15.1957   16.4852   47.8447 H           1 YFE       0.0443
     35 H10        14.3252   21.0951   48.4269 H           1 YFE       0.0383
     36 H11        11.9431   18.1442   48.4791 H           1 YFE       0.0576
     37 H12        12.6061   19.6118   49.1939 H           1 YFE       0.0576
     38 H13        13.2904   18.0206   49.6125 H           1 YFE       0.0576
     39 H14        18.7924   17.9786   49.1890 H           1 YFE       0.2469
     40 H15        17.1144   22.6731   50.0255 H           1 YFE       0.0441
     41 H16        15.3994   22.6252   49.8080 H           1 YFE       0.0441
     42 H17        15.6903   23.2355   47.3442 H           1 YFE       0.0448
     43 H18        17.4067   23.3991   47.6398 H           1 YFE       0.0448
     44 H19        18.1981   25.5340   48.4567 H           1 YFE       0.0557
     45 H20        17.7601   27.7880   49.2029 H           1 YFE       0.0599
     46 H21        15.4962   28.4766   49.7518 H           1 YFE       0.0559
     47 H22        13.6608   26.8993   49.5422 H           1 YFE       0.0599
     48 H23        14.0817   24.6410   48.8003 H           1 YFE       0.0557
@<TRIPOS>BOND
     1     1     2   1
     2     2     3   1
     3     2     4   2
     4     4     5   1
     5     5     6   1
     6     6     7  ar
     7     6    11  ar
     8     7     8  ar
     9     7     9   1
    10     8    17  ar
    11     9    10   1
    12    11    12   1
    13    11    13  ar
    14    13    14   1
    15    13    17  ar
    16    14    15  ar
    17    14    16  ar
    18    17    18   1
    19    18    19   1
    20    19    20   1
    21    20    21  ar
    22    20    25  ar
    23    21    22  ar
    24    22    23  ar
    25    23    24  ar
    26    24    25  ar
    27     1    26   1
    28     1    27   1
    29     1    28   1
    30     3    29   1
    31     3    30   1
    32     3    31   1
    33     4    32   1
    34     5    33   1
    35     5    34   1
    36     8    35   1
    37    10    36   1
    38    10    37   1
    39    10    38   1
    40    12    39   1
    41    18    40   1
    42    18    41   1
    43    19    42   1
    44    19    43   1
    45    21    44   1
    46    22    45   1
    47    23    46   1
    48    24    47   1
    49    25    48   1
@<TRIPOS>SUBSTRUCTURE
     1  YFE      1

