@<TRIPOS>MOLECULE
2yfe_ligand_009
    48    49
SMALL
GAST_HUCK
****
This file was generated by PARSER (from files_GN.cpp)

@<TRIPOS>ATOM
      1 CAB        14.1692   17.7147   48.3124 C.3         1 YFE      -0.0403
      2 CAR        14.6458   18.8651   49.0741 C.2         1 YFE      -0.0856
      3 CAC        13.8968   19.2574   50.2642 C.3         1 YFE      -0.0403
      4 CAG        15.7558   19.5487   48.7097 C.2         1 YFE      -0.1025
      5 CAN        16.5459   19.3153   47.5064 C.3         1 YFE      -0.0201
      6 CAX        17.7977   20.1345   47.4632 C.ar        1 YFE       0.0155
      7 CAW        17.7278   21.5129   47.1460 C.ar        1 YFE       0.0822
      8 CAM        18.9028   22.2864   47.1101 C.ar        1 YFE      -0.0446
      9 OAQ        16.5247   22.0873   46.8147 O.3         1 YFE      -0.3273
     10 CAA        15.9921   23.0140   47.7809 C.3         1 YFE       0.0581
     11 CAU        19.0623   19.5636   47.7531 C.ar        1 YFE       0.0914
     12 OAF        19.1369   18.2363   48.0559 O.3         1 YFE      -0.3377
     13 CAY        20.2363   20.3620   47.7648 C.ar        1 YFE       0.0231
     14 CAS        21.4765   19.7148   47.9730 C.2         1 YFE       0.0456
     15 OAE        22.1464   19.8973   49.1299 O.co2       1 YFE      -0.5694
     16 OAD        21.8046   18.6292   47.2358 O.co2       1 YFE      -0.5694
     17 CAV        20.1531   21.7682   47.5245 C.ar        1 YFE      -0.0494
     18 CAP        21.3431   22.6820   47.6318 C.3         1 YFE      -0.0147
     19 CAO        21.1665   24.2015   47.9675 C.3         1 YFE      -0.0100
     20 CAT        20.7249   24.5782   49.3508 C.ar        1 YFE      -0.0411
     21 CAK        19.6116   23.9657   49.9789 C.ar        1 YFE      -0.0602
     22 CAI        19.1238   24.4182   51.2172 C.ar        1 YFE      -0.0686
     23 CAH        19.7327   25.5105   51.8541 C.ar        1 YFE      -0.0687
     24 CAJ        20.8447   26.1318   51.2628 C.ar        1 YFE      -0.0686
     25 CAL        21.3416   25.6632   50.0300 C.ar        1 YFE      -0.0602
     26 H1         13.2501   17.2961   48.7283 H           1 YFE       0.0377
     27 H2         14.9249   16.9269   48.3222 H           1 YFE       0.0377
     28 H3         13.9684   18.0041   47.2795 H           1 YFE       0.0377
     29 H4         14.3132   20.1328   50.7726 H           1 YFE       0.0377
     30 H5         13.8842   18.4349   50.9828 H           1 YFE       0.0377
     31 H6         12.8665   19.4955   49.9856 H           1 YFE       0.0377
     32 H7         16.0599   20.2798   49.3131 H           1 YFE       0.0254
     33 H8         15.9411   19.5509   46.6259 H           1 YFE       0.0443
     34 H9         16.7796   18.2512   47.4387 H           1 YFE       0.0443
     35 H10        18.8146   23.2603   46.8140 H           1 YFE       0.0383
     36 H11        14.9723   23.2609   47.4847 H           1 YFE       0.0576
     37 H12        16.5722   23.9382   47.7986 H           1 YFE       0.0576
     38 H13        15.9587   22.5947   48.7880 H           1 YFE       0.0576
     39 H14        19.3639   18.1870   49.0097 H           1 YFE       0.2469
     40 H15        21.8753   22.6063   46.6805 H           1 YFE       0.0441
     41 H16        22.0229   22.3106   48.3997 H           1 YFE       0.0441
     42 H17        20.4665   24.6574   47.2633 H           1 YFE       0.0448
     43 H18        22.1348   24.6741   47.7637 H           1 YFE       0.0448
     44 H19        19.1279   23.1858   49.5428 H           1 YFE       0.0557
     45 H20        18.3192   23.9566   51.6477 H           1 YFE       0.0599
     46 H21        19.3720   25.8419   52.7537 H           1 YFE       0.0559
     47 H22        21.2902   26.9255   51.7265 H           1 YFE       0.0599
     48 H23        22.1393   26.1498   49.6141 H           1 YFE       0.0557
@<TRIPOS>BOND
     1     1     2   1
     2     2     3   1
     3     2     4   2
     4     4     5   1
     5     5     6   1
     6     6     7  ar
     7     6    11  ar
     8     7     8  ar
     9     7     9   1
    10     8    17  ar
    11     9    10   1
    12    11    12   1
    13    11    13  ar
    14    13    14   1
    15    13    17  ar
    16    14    15  ar
    17    14    16  ar
    18    17    18   1
    19    18    19   1
    20    19    20   1
    21    20    21  ar
    22    20    25  ar
    23    21    22  ar
    24    22    23  ar
    25    23    24  ar
    26    24    25  ar
    27     1    26   1
    28     1    27   1
    29     1    28   1
    30     3    29   1
    31     3    30   1
    32     3    31   1
    33     4    32   1
    34     5    33   1
    35     5    34   1
    36     8    35   1
    37    10    36   1
    38    10    37   1
    39    10    38   1
    40    12    39   1
    41    18    40   1
    42    18    41   1
    43    19    42   1
    44    19    43   1
    45    21    44   1
    46    22    45   1
    47    23    46   1
    48    24    47   1
    49    25    48   1
@<TRIPOS>SUBSTRUCTURE
     1  YFE      1

