@<TRIPOS>MOLECULE
2yfe_ligand_028
    48    49
SMALL
GAST_HUCK
****
This file was generated by PARSER (from files_GN.cpp)

@<TRIPOS>ATOM
      1 CAB        15.4967   18.7409   46.3441 C.3         1 YFE      -0.0403
      2 CAR        16.2270   18.0970   47.4340 C.2         1 YFE      -0.0856
      3 CAC        15.5874   18.0665   48.7500 C.3         1 YFE      -0.0403
      4 CAG        17.4739   17.5945   47.2752 C.2         1 YFE      -0.1025
      5 CAN        18.3483   17.8483   46.1303 C.3         1 YFE      -0.0201
      6 CAX        19.7852   17.4969   46.3580 C.ar        1 YFE       0.0155
      7 CAW        20.4879   16.6139   45.4964 C.ar        1 YFE       0.0822
      8 CAM        21.8623   16.3635   45.7088 C.ar        1 YFE      -0.0446
      9 OAQ        19.8670   15.9759   44.4535 O.3         1 YFE      -0.3273
     10 CAA        20.0689   16.6362   43.1893 C.3         1 YFE       0.0581
     11 CAU        20.5040   18.1282   47.4062 C.ar        1 YFE       0.0914
     12 OAF        19.8467   18.9854   48.2485 O.3         1 YFE      -0.3377
     13 CAY        21.8883   17.8922   47.5977 C.ar        1 YFE       0.0231
     14 CAS        22.5198   18.5727   48.6508 C.2         1 YFE       0.0456
     15 OAE        23.1435   19.7490   48.4073 O.co2       1 YFE      -0.5694
     16 OAD        22.7271   17.9317   49.8279 O.co2       1 YFE      -0.5694
     17 CAV        22.5929   17.0141   46.7277 C.ar        1 YFE      -0.0494
     18 CAP        24.0749   16.8088   46.7758 C.3         1 YFE      -0.0147
     19 CAO        24.5738   15.3414   46.9615 C.3         1 YFE      -0.0100
     20 CAT        25.2122   14.7124   45.7714 C.ar        1 YFE      -0.0411
     21 CAK        26.3402   15.3192   45.1666 C.ar        1 YFE      -0.0602
     22 CAI        27.0078   14.6974   44.0948 C.ar        1 YFE      -0.0686
     23 CAH        26.5879   13.4359   43.6428 C.ar        1 YFE      -0.0687
     24 CAJ        25.4798   12.8098   44.2445 C.ar        1 YFE      -0.0686
     25 CAL        24.7891   13.4488   45.2919 C.ar        1 YFE      -0.0602
     26 H1         14.4925   19.0547   46.6427 H           1 YFE       0.0377
     27 H2         15.3881   18.0397   45.5151 H           1 YFE       0.0377
     28 H3         16.0331   19.6280   46.0018 H           1 YFE       0.0377
     29 H4         16.2126   17.6117   49.5236 H           1 YFE       0.0377
     30 H5         14.6537   17.5054   48.6893 H           1 YFE       0.0377
     31 H6         15.3642   19.0893   49.0682 H           1 YFE       0.0377
     32 H7         17.8599   17.0700   48.0306 H           1 YFE       0.0254
     33 H8         18.3370   18.9200   45.8989 H           1 YFE       0.0443
     34 H9         17.9248   17.3263   45.2709 H           1 YFE       0.0443
     35 H10        22.3432   15.7292   45.0719 H           1 YFE       0.0383
     36 H11        19.4567   16.1311   42.4432 H           1 YFE       0.0576
     37 H12        21.1120   16.5765   42.8680 H           1 YFE       0.0576
     38 H13        19.7616   17.6853   43.2284 H           1 YFE       0.0576
     39 H14        19.9019   18.5645   49.1342 H           1 YFE       0.2469
     40 H15        24.5286   17.4041   47.5747 H           1 YFE       0.0441
     41 H16        24.4717   17.2334   45.8530 H           1 YFE       0.0441
     42 H17        23.7620   14.7221   47.3401 H           1 YFE       0.0448
     43 H18        25.3362   15.3312   47.7425 H           1 YFE       0.0448
     44 H19        26.6947   16.2128   45.5094 H           1 YFE       0.0557
     45 H20        27.8108   15.1568   43.6594 H           1 YFE       0.0599
     46 H21        27.0894   12.9650   42.8911 H           1 YFE       0.0559
     47 H22        25.1884   11.8811   43.9311 H           1 YFE       0.0599
     48 H23        23.9961   12.9667   45.7229 H           1 YFE       0.0557
@<TRIPOS>BOND
     1     1     2   1
     2     2     3   1
     3     2     4   2
     4     4     5   1
     5     5     6   1
     6     6     7  ar
     7     6    11  ar
     8     7     8  ar
     9     7     9   1
    10     8    17  ar
    11     9    10   1
    12    11    12   1
    13    11    13  ar
    14    13    14   1
    15    13    17  ar
    16    14    15  ar
    17    14    16  ar
    18    17    18   1
    19    18    19   1
    20    19    20   1
    21    20    21  ar
    22    20    25  ar
    23    21    22  ar
    24    22    23  ar
    25    23    24  ar
    26    24    25  ar
    27     1    26   1
    28     1    27   1
    29     1    28   1
    30     3    29   1
    31     3    30   1
    32     3    31   1
    33     4    32   1
    34     5    33   1
    35     5    34   1
    36     8    35   1
    37    10    36   1
    38    10    37   1
    39    10    38   1
    40    12    39   1
    41    18    40   1
    42    18    41   1
    43    19    42   1
    44    19    43   1
    45    21    44   1
    46    22    45   1
    47    23    46   1
    48    24    47   1
    49    25    48   1
@<TRIPOS>SUBSTRUCTURE
     1  YFE      1

