@<TRIPOS>MOLECULE
2yfe_ligand_005
    48    49
SMALL
GAST_HUCK
****
This file was generated by PARSER (from files_GN.cpp)

@<TRIPOS>ATOM
      1 CAB        14.5866   16.7227   42.2109 C.3         1 YFE      -0.0403
      2 CAR        15.8914   17.2446   41.8014 C.2         1 YFE      -0.0856
      3 CAC        16.1563   17.3336   40.3643 C.3         1 YFE      -0.0403
      4 CAG        16.8380   17.6068   42.6970 C.2         1 YFE      -0.1025
      5 CAN        16.7143   17.4967   44.1497 C.3         1 YFE      -0.0201
      6 CAX        17.9828   17.6924   44.9271 C.ar        1 YFE       0.0155
      7 CAW        18.0836   18.6742   45.9468 C.ar        1 YFE       0.0822
      8 CAM        19.2457   18.7654   46.7302 C.ar        1 YFE      -0.0446
      9 OAQ        17.0202   19.4880   46.2579 O.3         1 YFE      -0.3273
     10 CAA        17.2200   20.8773   45.9372 C.3         1 YFE       0.0581
     11 CAU        19.0903   16.8274   44.7209 C.ar        1 YFE       0.0914
     12 OAF        19.0210   15.8504   43.7681 O.3         1 YFE      -0.3377
     13 CAY        20.2726   16.9495   45.4949 C.ar        1 YFE       0.0231
     14 CAS        21.3197   16.0238   45.2771 C.2         1 YFE       0.0456
     15 OAE        21.0896   14.7009   45.4296 O.co2       1 YFE      -0.5694
     16 OAD        22.3761   16.3902   44.5220 O.co2       1 YFE      -0.5694
     17 CAV        20.3791   17.9584   46.5023 C.ar        1 YFE      -0.0494
     18 CAP        21.6134   18.1015   47.3506 C.3         1 YFE      -0.0147
     19 CAO        21.8271   19.2837   48.3536 C.3         1 YFE      -0.0100
     20 CAT        22.2929   20.5638   47.7364 C.ar        1 YFE      -0.0411
     21 CAK        21.4053   21.6271   47.4412 C.ar        1 YFE      -0.0602
     22 CAI        21.8872   22.8504   46.9331 C.ar        1 YFE      -0.0686
     23 CAH        23.2673   23.0373   46.7365 C.ar        1 YFE      -0.0687
     24 CAJ        24.1607   21.9908   47.0145 C.ar        1 YFE      -0.0686
     25 CAL        23.6758   20.7607   47.4962 C.ar        1 YFE      -0.0602
     26 H1         13.9362   16.5073   41.3596 H           1 YFE       0.0377
     27 H2         14.0693   17.4481   42.8414 H           1 YFE       0.0377
     28 H3         14.7140   15.7933   42.7692 H           1 YFE       0.0377
     29 H4         17.1648   17.6846   40.1289 H           1 YFE       0.0377
     30 H5         15.4443   18.0185   39.8968 H           1 YFE       0.0377
     31 H6         16.0417   16.3469   39.9097 H           1 YFE       0.0377
     32 H7         17.6934   17.9768   42.3445 H           1 YFE       0.0254
     33 H8         16.3447   16.5026   44.4072 H           1 YFE       0.0443
     34 H9         15.9438   18.2040   44.4544 H           1 YFE       0.0443
     35 H10        19.2431   19.4341   47.4992 H           1 YFE       0.0383
     36 H11        16.3149   21.4202   46.2072 H           1 YFE       0.0576
     37 H12        17.4037   21.0197   44.8696 H           1 YFE       0.0576
     38 H13        18.0473   21.3048   46.5073 H           1 YFE       0.0576
     39 H14        18.1354   15.4385   43.8546 H           1 YFE       0.2469
     40 H15        22.4713   18.1168   46.6781 H           1 YFE       0.0441
     41 H16        21.6827   17.1838   47.9377 H           1 YFE       0.0441
     42 H17        22.6005   18.9665   49.0602 H           1 YFE       0.0448
     43 H18        20.9397   19.4415   48.9708 H           1 YFE       0.0448
     44 H19        20.4023   21.5279   47.6042 H           1 YFE       0.0557
     45 H20        21.2401   23.6146   46.7314 H           1 YFE       0.0599
     46 H21        23.6222   23.9391   46.4064 H           1 YFE       0.0559
     47 H22        25.1650   22.1290   46.8873 H           1 YFE       0.0599
     48 H23        24.3441   20.0162   47.6966 H           1 YFE       0.0557
@<TRIPOS>BOND
     1     1     2   1
     2     2     3   1
     3     2     4   2
     4     4     5   1
     5     5     6   1
     6     6     7  ar
     7     6    11  ar
     8     7     8  ar
     9     7     9   1
    10     8    17  ar
    11     9    10   1
    12    11    12   1
    13    11    13  ar
    14    13    14   1
    15    13    17  ar
    16    14    15  ar
    17    14    16  ar
    18    17    18   1
    19    18    19   1
    20    19    20   1
    21    20    21  ar
    22    20    25  ar
    23    21    22  ar
    24    22    23  ar
    25    23    24  ar
    26    24    25  ar
    27     1    26   1
    28     1    27   1
    29     1    28   1
    30     3    29   1
    31     3    30   1
    32     3    31   1
    33     4    32   1
    34     5    33   1
    35     5    34   1
    36     8    35   1
    37    10    36   1
    38    10    37   1
    39    10    38   1
    40    12    39   1
    41    18    40   1
    42    18    41   1
    43    19    42   1
    44    19    43   1
    45    21    44   1
    46    22    45   1
    47    23    46   1
    48    24    47   1
    49    25    48   1
@<TRIPOS>SUBSTRUCTURE
     1  YFE      1

