@<TRIPOS>MOLECULE
2yfe_ligand_002
    48    49
SMALL
GAST_HUCK
****
This file was generated by PARSER (from files_GN.cpp)

@<TRIPOS>ATOM
      1 CAB        15.0833   23.0358   48.2352 C.3         1 YFE      -0.0403
      2 CAR        14.9033   21.7779   47.5165 C.2         1 YFE      -0.0856
      3 CAC        13.5396   21.2502   47.4144 C.3         1 YFE      -0.0403
      4 CAG        15.9308   21.1101   46.9343 C.2         1 YFE      -0.1025
      5 CAN        17.3120   21.5669   46.7592 C.3         1 YFE      -0.0201
      6 CAX        18.3453   20.4915   46.8815 C.ar        1 YFE       0.0155
      7 CAW        18.3294   19.3867   45.9891 C.ar        1 YFE       0.0822
      8 CAM        19.3480   18.4163   46.0351 C.ar        1 YFE      -0.0446
      9 OAQ        17.2870   19.2256   45.1051 O.3         1 YFE      -0.3273
     10 CAA        17.6516   19.3355   43.7127 C.3         1 YFE       0.0581
     11 CAU        19.4036   20.5647   47.8277 C.ar        1 YFE       0.0914
     12 OAF        19.4109   21.5484   48.7710 O.3         1 YFE      -0.3377
     13 CAY        20.4652   19.6202   47.8223 C.ar        1 YFE       0.0231
     14 CAS        21.5151   19.7970   48.7408 C.2         1 YFE       0.0456
     15 OAE        22.2227   20.9553   48.7403 O.co2       1 YFE      -0.5694
     16 OAD        21.7839   18.8747   49.6897 O.co2       1 YFE      -0.5694
     17 CAV        20.4702   18.5381   46.8886 C.ar        1 YFE      -0.0494
     18 CAP        21.5564   17.5034   46.7272 C.3         1 YFE      -0.0147
     19 CAO        22.9976   17.8090   47.2397 C.3         1 YFE      -0.0100
     20 CAT        24.1610   17.0891   46.6184 C.ar        1 YFE      -0.0411
     21 CAK        24.0771   15.7805   46.0833 C.ar        1 YFE      -0.0602
     22 CAI        25.1996   15.1641   45.5013 C.ar        1 YFE      -0.0686
     23 CAH        26.4352   15.8374   45.4568 C.ar        1 YFE      -0.0687
     24 CAJ        26.5422   17.1255   46.0080 C.ar        1 YFE      -0.0686
     25 CAL        25.4181   17.7376   46.5973 C.ar        1 YFE      -0.0602
     26 H1         14.1376   23.4472   48.6062 H           1 YFE       0.0377
     27 H2         15.5269   23.7899   47.5826 H           1 YFE       0.0377
     28 H3         15.7341   22.8812   49.0987 H           1 YFE       0.0377
     29 H4         13.4713   20.3189   46.8515 H           1 YFE       0.0377
     30 H5         12.9016   21.9822   46.9118 H           1 YFE       0.0377
     31 H6         13.1364   21.0659   48.4134 H           1 YFE       0.0377
     32 H7         15.7137   20.2572   46.4794 H           1 YFE       0.0254
     33 H8         17.5419   22.3979   47.4197 H           1 YFE       0.0443
     34 H9         17.3960   21.9787   45.7519 H           1 YFE       0.0443
     35 H10        19.2702   17.6197   45.3980 H           1 YFE       0.0383
     36 H11        16.7322   19.3630   43.1277 H           1 YFE       0.0576
     37 H12        18.2352   18.4669   43.3936 H           1 YFE       0.0576
     38 H13        18.2149   20.2503   43.5045 H           1 YFE       0.0576
     39 H14        18.4867   21.6129   49.1208 H           1 YFE       0.2469
     40 H15        21.6545   17.2854   45.6594 H           1 YFE       0.0441
     41 H16        21.1973   16.5858   47.1987 H           1 YFE       0.0441
     42 H17        23.0451   17.5738   48.3072 H           1 YFE       0.0448
     43 H18        23.1692   18.8857   47.1267 H           1 YFE       0.0448
     44 H19        23.2015   15.2540   46.0917 H           1 YFE       0.0557
     45 H20        25.1181   14.2239   45.1008 H           1 YFE       0.0599
     46 H21        27.2508   15.3787   45.0507 H           1 YFE       0.0559
     47 H22        27.4339   17.6253   45.9703 H           1 YFE       0.0599
     48 H23        25.5199   18.6826   46.9856 H           1 YFE       0.0557
@<TRIPOS>BOND
     1     1     2   1
     2     2     3   1
     3     2     4   2
     4     4     5   1
     5     5     6   1
     6     6     7  ar
     7     6    11  ar
     8     7     8  ar
     9     7     9   1
    10     8    17  ar
    11     9    10   1
    12    11    12   1
    13    11    13  ar
    14    13    14   1
    15    13    17  ar
    16    14    15  ar
    17    14    16  ar
    18    17    18   1
    19    18    19   1
    20    19    20   1
    21    20    21  ar
    22    20    25  ar
    23    21    22  ar
    24    22    23  ar
    25    23    24  ar
    26    24    25  ar
    27     1    26   1
    28     1    27   1
    29     1    28   1
    30     3    29   1
    31     3    30   1
    32     3    31   1
    33     4    32   1
    34     5    33   1
    35     5    34   1
    36     8    35   1
    37    10    36   1
    38    10    37   1
    39    10    38   1
    40    12    39   1
    41    18    40   1
    42    18    41   1
    43    19    42   1
    44    19    43   1
    45    21    44   1
    46    22    45   1
    47    23    46   1
    48    24    47   1
    49    25    48   1
@<TRIPOS>SUBSTRUCTURE
     1  YFE      1

