@<TRIPOS>MOLECULE
2yfe_ligand_021
    48    49
SMALL
GAST_HUCK
****
This file was generated by PARSER (from files_GN.cpp)

@<TRIPOS>ATOM
      1 CAB        17.4054   19.9675   45.4467 C.3         1 YFE      -0.0403
      2 CAR        16.7564   19.8750   46.7483 C.2         1 YFE      -0.0856
      3 CAC        15.7692   18.8113   46.9539 C.3         1 YFE      -0.0403
      4 CAG        17.0725   20.7192   47.7641 C.2         1 YFE      -0.1025
      5 CAN        18.0533   21.8054   47.7558 C.3         1 YFE      -0.0201
      6 CAX        19.4934   21.3913   47.7837 C.ar        1 YFE       0.0155
      7 CAW        20.4813   22.1941   47.1565 C.ar        1 YFE       0.0822
      8 CAM        21.8266   21.7905   47.1572 C.ar        1 YFE      -0.0446
      9 OAQ        20.1733   23.3368   46.4621 O.3         1 YFE      -0.3273
     10 CAA        19.8566   24.4621   47.3060 C.3         1 YFE       0.0581
     11 CAU        19.9157   20.2326   48.4835 C.ar        1 YFE       0.0914
     12 OAF        18.9912   19.5418   49.1995 O.3         1 YFE      -0.3377
     13 CAY        21.2833   19.8473   48.5218 C.ar        1 YFE       0.0231
     14 CAS        21.6650   18.7531   49.3151 C.2         1 YFE       0.0456
     15 OAE        21.2362   17.5063   49.0292 O.co2       1 YFE      -0.5694
     16 OAD        22.3981   18.9379   50.4303 O.co2       1 YFE      -0.5694
     17 CAV        22.2499   20.6014   47.7978 C.ar        1 YFE      -0.0494
     18 CAP        23.7053   20.2329   47.6625 C.3         1 YFE      -0.0147
     19 CAO        24.0879   18.7187   47.7712 C.3         1 YFE      -0.0100
     20 CAT        25.2244   18.2177   46.9401 C.ar        1 YFE      -0.0411
     21 CAK        26.3202   19.0172   46.5342 C.ar        1 YFE      -0.0602
     22 CAI        27.3318   18.4827   45.7069 C.ar        1 YFE      -0.0686
     23 CAH        27.2688   17.1391   45.2945 C.ar        1 YFE      -0.0687
     24 CAJ        26.2275   16.3131   45.7433 C.ar        1 YFE      -0.0686
     25 CAL        25.2152   16.8501   46.5639 C.ar        1 YFE      -0.0602
     26 H1         17.0042   19.2404   44.7268 H           1 YFE       0.0377
     27 H2         18.4808   19.7716   45.5437 H           1 YFE       0.0377
     28 H3         17.2613   20.9689   45.0203 H           1 YFE       0.0377
     29 H4         15.3181   18.8190   47.9508 H           1 YFE       0.0377
     30 H5         16.2395   17.8322   46.8065 H           1 YFE       0.0377
     31 H6         14.9554   18.9194   46.2276 H           1 YFE       0.0377
     32 H7         16.5739   20.6006   48.6225 H           1 YFE       0.0254
     33 H8         17.8783   22.4365   48.6382 H           1 YFE       0.0443
     34 H9         17.8121   22.4301   46.8834 H           1 YFE       0.0443
     35 H10        22.5028   22.3862   46.6608 H           1 YFE       0.0383
     36 H11        19.6615   25.3266   46.6684 H           1 YFE       0.0576
     37 H12        20.6905   24.7089   47.9712 H           1 YFE       0.0576
     38 H13        18.9593   24.2719   47.9058 H           1 YFE       0.0576
     39 H14        19.4019   18.6560   49.4165 H           1 YFE       0.2469
     40 H15        24.2902   20.8060   48.3954 H           1 YFE       0.0441
     41 H16        24.0576   20.5546   46.6725 H           1 YFE       0.0441
     42 H17        23.1726   18.1425   47.5538 H           1 YFE       0.0448
     43 H18        24.3486   18.5182   48.8133 H           1 YFE       0.0448
     44 H19        26.4041   19.9848   46.8196 H           1 YFE       0.0557
     45 H20        28.1088   19.0760   45.3926 H           1 YFE       0.0599
     46 H21        27.9860   16.7662   44.6645 H           1 YFE       0.0559
     47 H22        26.2032   15.3364   45.4649 H           1 YFE       0.0599
     48 H23        24.4601   16.2262   46.8817 H           1 YFE       0.0557
@<TRIPOS>BOND
     1     1     2   1
     2     2     3   1
     3     2     4   2
     4     4     5   1
     5     5     6   1
     6     6     7  ar
     7     6    11  ar
     8     7     8  ar
     9     7     9   1
    10     8    17  ar
    11     9    10   1
    12    11    12   1
    13    11    13  ar
    14    13    14   1
    15    13    17  ar
    16    14    15  ar
    17    14    16  ar
    18    17    18   1
    19    18    19   1
    20    19    20   1
    21    20    21  ar
    22    20    25  ar
    23    21    22  ar
    24    22    23  ar
    25    23    24  ar
    26    24    25  ar
    27     1    26   1
    28     1    27   1
    29     1    28   1
    30     3    29   1
    31     3    30   1
    32     3    31   1
    33     4    32   1
    34     5    33   1
    35     5    34   1
    36     8    35   1
    37    10    36   1
    38    10    37   1
    39    10    38   1
    40    12    39   1
    41    18    40   1
    42    18    41   1
    43    19    42   1
    44    19    43   1
    45    21    44   1
    46    22    45   1
    47    23    46   1
    48    24    47   1
    49    25    48   1
@<TRIPOS>SUBSTRUCTURE
     1  YFE      1

