@<TRIPOS>MOLECULE
2yfe_ligand_000
    48    49
SMALL
GAST_HUCK
****
This file was generated by PARSER (from files_GN.cpp)

@<TRIPOS>ATOM
      1 CAB        15.2603   18.8466   48.2192 C.3         1 YFE      -0.0403
      2 CAR        16.0917   19.6697   47.3424 C.2         1 YFE      -0.0856
      3 CAC        15.7906   21.0988   47.2871 C.3         1 YFE      -0.0403
      4 CAG        17.0979   19.1504   46.5999 C.2         1 YFE      -0.1025
      5 CAN        17.6042   17.7792   46.6403 C.3         1 YFE      -0.0201
      6 CAX        19.0983   17.7044   46.7736 C.ar        1 YFE       0.0155
      7 CAW        19.8963   16.9858   45.8452 C.ar        1 YFE       0.0822
      8 CAM        21.3021   16.9803   45.9886 C.ar        1 YFE      -0.0446
      9 OAQ        19.2825   16.3957   44.7604 O.3         1 YFE      -0.3273
     10 CAA        19.9131   15.2661   44.1360 C.3         1 YFE       0.0581
     11 CAU        19.7433   18.3411   47.8617 C.ar        1 YFE       0.0914
     12 OAF        18.9896   19.0333   48.7618 O.3         1 YFE      -0.3377
     13 CAY        21.1502   18.2882   48.0252 C.ar        1 YFE       0.0231
     14 CAS        21.7140   18.9675   49.1141 C.2         1 YFE       0.0456
     15 OAE        22.0062   20.2760   48.9411 O.co2       1 YFE      -0.5694
     16 OAD        21.9828   18.3575   50.2950 O.co2       1 YFE      -0.5694
     17 CAV        21.9615   17.6417   47.0541 C.ar        1 YFE      -0.0494
     18 CAP        23.4661   17.6168   47.1201 C.3         1 YFE      -0.0147
     19 CAO        24.1719   18.9757   47.4479 C.3         1 YFE      -0.0100
     20 CAT        25.5292   19.2825   46.8922 C.ar        1 YFE      -0.0411
     21 CAK        26.3846   18.3279   46.2867 C.ar        1 YFE      -0.0602
     22 CAI        27.6215   18.7112   45.7380 C.ar        1 YFE      -0.0686
     23 CAH        28.0329   20.0539   45.7970 C.ar        1 YFE      -0.0687
     24 CAJ        27.2224   21.0056   46.4322 C.ar        1 YFE      -0.0686
     25 CAL        25.9884   20.6197   46.9851 C.ar        1 YFE      -0.0602
     26 H1         14.4558   19.4166   48.6912 H           1 YFE       0.0377
     27 H2         15.8681   18.4139   49.0162 H           1 YFE       0.0377
     28 H3         14.7965   18.0417   47.6445 H           1 YFE       0.0377
     29 H4         16.4618   21.6610   46.6342 H           1 YFE       0.0377
     30 H5         15.8758   21.5237   48.2902 H           1 YFE       0.0377
     31 H6         14.7704   21.2478   46.9285 H           1 YFE       0.0377
     32 H7         17.5521   19.7496   45.9472 H           1 YFE       0.0254
     33 H8         17.2455   17.3045   45.7271 H           1 YFE       0.0443
     34 H9         17.1805   17.1995   47.4637 H           1 YFE       0.0443
     35 H10        21.8489   16.4807   45.2909 H           1 YFE       0.0383
     36 H11        19.1669   14.7353   43.5402 H           1 YFE       0.0576
     37 H12        20.3315   14.5692   44.8658 H           1 YFE       0.0576
     38 H13        20.6943   15.6078   43.4585 H           1 YFE       0.0576
     39 H14        18.9451   18.4461   49.5403 H           1 YFE       0.2469
     40 H15        23.8439   17.2559   46.1664 H           1 YFE       0.0441
     41 H16        23.7591   16.8851   47.8767 H           1 YFE       0.0441
     42 H17        24.2876   19.0364   48.5336 H           1 YFE       0.0448
     43 H18        23.4955   19.7866   47.1537 H           1 YFE       0.0448
     44 H19        26.1300   17.3410   46.2351 H           1 YFE       0.0557
     45 H20        28.2209   18.0101   45.2900 H           1 YFE       0.0599
     46 H21        28.9245   20.3362   45.3834 H           1 YFE       0.0559
     47 H22        27.5237   21.9843   46.4849 H           1 YFE       0.0599
     48 H23        25.4138   21.3316   47.4400 H           1 YFE       0.0557
@<TRIPOS>BOND
     1     1     2   1
     2     2     3   1
     3     2     4   2
     4     4     5   1
     5     5     6   1
     6     6     7  ar
     7     6    11  ar
     8     7     8  ar
     9     7     9   1
    10     8    17  ar
    11     9    10   1
    12    11    12   1
    13    11    13  ar
    14    13    14   1
    15    13    17  ar
    16    14    15  ar
    17    14    16  ar
    18    17    18   1
    19    18    19   1
    20    19    20   1
    21    20    21  ar
    22    20    25  ar
    23    21    22  ar
    24    22    23  ar
    25    23    24  ar
    26    24    25  ar
    27     1    26   1
    28     1    27   1
    29     1    28   1
    30     3    29   1
    31     3    30   1
    32     3    31   1
    33     4    32   1
    34     5    33   1
    35     5    34   1
    36     8    35   1
    37    10    36   1
    38    10    37   1
    39    10    38   1
    40    12    39   1
    41    18    40   1
    42    18    41   1
    43    19    42   1
    44    19    43   1
    45    21    44   1
    46    22    45   1
    47    23    46   1
    48    24    47   1
    49    25    48   1
@<TRIPOS>SUBSTRUCTURE
     1  YFE      1

