@<TRIPOS>MOLECULE
2yfe_ligand_018
    48    49
SMALL
GAST_HUCK
****
This file was generated by PARSER (from files_GN.cpp)

@<TRIPOS>ATOM
      1 CAB        25.8570   13.6536   44.4194 C.3         1 YFE      -0.0403
      2 CAR        26.1577   15.0281   44.8082 C.2         1 YFE      -0.0856
      3 CAC        27.3635   15.6297   44.2360 C.3         1 YFE      -0.0403
      4 CAG        25.3917   15.7307   45.6746 C.2         1 YFE      -0.1025
      5 CAN        24.2274   15.2662   46.4210 C.3         1 YFE      -0.0201
      6 CAX        23.0016   16.1079   46.1770 C.ar        1 YFE       0.0155
      7 CAW        21.9604   15.6574   45.3220 C.ar        1 YFE       0.0822
      8 CAM        20.7344   16.3584   45.2911 C.ar        1 YFE      -0.0446
      9 OAQ        22.1451   14.4795   44.6268 O.3         1 YFE      -0.3273
     10 CAA        21.4584   14.2423   43.3838 C.3         1 YFE       0.0581
     11 CAU        22.8184   17.3231   46.8874 C.ar        1 YFE       0.0914
     12 OAF        23.8590   17.7767   47.6394 O.3         1 YFE      -0.3377
     13 CAY        21.5950   18.0511   46.8419 C.ar        1 YFE       0.0231
     14 CAS        21.4775   19.2845   47.5549 C.2         1 YFE       0.0456
     15 OAE        20.7758   20.3142   47.0282 O.co2       1 YFE      -0.5694
     16 OAD        22.1832   19.5517   48.6860 O.co2       1 YFE      -0.5694
     17 CAV        20.5187   17.5314   46.0631 C.ar        1 YFE      -0.0494
     18 CAP        19.1059   18.0430   46.0923 C.3         1 YFE      -0.0147
     19 CAO        18.5589   18.6465   44.7562 C.3         1 YFE      -0.0100
     20 CAT        17.4602   17.8866   44.0869 C.ar        1 YFE      -0.0411
     21 CAK        16.3030   17.4951   44.8109 C.ar        1 YFE      -0.0602
     22 CAI        15.2411   16.8266   44.1778 C.ar        1 YFE      -0.0686
     23 CAH        15.2925   16.5616   42.7978 C.ar        1 YFE      -0.0687
     24 CAJ        16.4183   16.9676   42.0510 C.ar        1 YFE      -0.0686
     25 CAL        17.4924   17.6188   42.6856 C.ar        1 YFE      -0.0602
     26 H1         26.5863   13.2532   43.7100 H           1 YFE       0.0377
     27 H2         24.8757   13.6068   43.9403 H           1 YFE       0.0377
     28 H3         25.8628   13.0084   45.2959 H           1 YFE       0.0377
     29 H4         27.5189   16.6722   44.5275 H           1 YFE       0.0377
     30 H5         27.3133   15.5939   43.1459 H           1 YFE       0.0377
     31 H6         28.2362   15.0618   44.5617 H           1 YFE       0.0377
     32 H7         25.6688   16.6652   45.8777 H           1 YFE       0.0254
     33 H8         24.4850   15.3086   47.4815 H           1 YFE       0.0443
     34 H9         24.0091   14.2136   46.2433 H           1 YFE       0.0443
     35 H10        19.9760   15.9859   44.7166 H           1 YFE       0.0383
     36 H11        21.9366   13.3927   42.8859 H           1 YFE       0.0576
     37 H12        21.5248   15.1017   42.7112 H           1 YFE       0.0576
     38 H13        20.4130   13.9873   43.5523 H           1 YFE       0.0576
     39 H14        23.5331   17.7166   48.5633 H           1 YFE       0.2469
     40 H15        19.0005   18.7969   46.8847 H           1 YFE       0.0441
     41 H16        18.4793   17.2004   46.4131 H           1 YFE       0.0441
     42 H17        19.3870   18.7951   44.0527 H           1 YFE       0.0448
     43 H18        18.1630   19.6536   44.9511 H           1 YFE       0.0448
     44 H19        16.2244   17.7044   45.8056 H           1 YFE       0.0557
     45 H20        14.4223   16.5576   44.7145 H           1 YFE       0.0599
     46 H21        14.5140   16.1011   42.3337 H           1 YFE       0.0559
     47 H22        16.4433   16.8052   41.0438 H           1 YFE       0.0599
     48 H23        18.2912   17.9226   42.1215 H           1 YFE       0.0557
@<TRIPOS>BOND
     1     1     2   1
     2     2     3   1
     3     2     4   2
     4     4     5   1
     5     5     6   1
     6     6     7  ar
     7     6    11  ar
     8     7     8  ar
     9     7     9   1
    10     8    17  ar
    11     9    10   1
    12    11    12   1
    13    11    13  ar
    14    13    14   1
    15    13    17  ar
    16    14    15  ar
    17    14    16  ar
    18    17    18   1
    19    18    19   1
    20    19    20   1
    21    20    21  ar
    22    20    25  ar
    23    21    22  ar
    24    22    23  ar
    25    23    24  ar
    26    24    25  ar
    27     1    26   1
    28     1    27   1
    29     1    28   1
    30     3    29   1
    31     3    30   1
    32     3    31   1
    33     4    32   1
    34     5    33   1
    35     5    34   1
    36     8    35   1
    37    10    36   1
    38    10    37   1
    39    10    38   1
    40    12    39   1
    41    18    40   1
    42    18    41   1
    43    19    42   1
    44    19    43   1
    45    21    44   1
    46    22    45   1
    47    23    46   1
    48    24    47   1
    49    25    48   1
@<TRIPOS>SUBSTRUCTURE
     1  YFE      1

