@<TRIPOS>MOLECULE
2yfe_ligand_026
    48    49
SMALL
GAST_HUCK
****
This file was generated by PARSER (from files_GN.cpp)

@<TRIPOS>ATOM
      1 CAB        27.2724   12.1646   44.1437 C.3         1 YFE      -0.0403
      2 CAR        26.0054   11.9782   44.8522 C.2         1 YFE      -0.0856
      3 CAC        25.5517   10.5992   45.0713 C.3         1 YFE      -0.0403
      4 CAG        25.2690   13.0257   45.2905 C.2         1 YFE      -0.1025
      5 CAN        25.6007   14.4318   45.0750 C.3         1 YFE      -0.0201
      6 CAX        24.5788   15.3961   45.5920 C.ar        1 YFE       0.0155
      7 CAW        24.9367   16.4618   46.4575 C.ar        1 YFE       0.0822
      8 CAM        23.9580   17.3274   46.9658 C.ar        1 YFE      -0.0446
      9 OAQ        26.2396   16.7024   46.8296 O.3         1 YFE      -0.3273
     10 CAA        26.9392   17.5948   45.9351 C.3         1 YFE       0.0581
     11 CAU        23.2248   15.2946   45.1718 C.ar        1 YFE       0.0914
     12 OAF        22.8983   14.3452   44.2473 O.3         1 YFE      -0.3377
     13 CAY        22.2444   16.2275   45.6160 C.ar        1 YFE       0.0231
     14 CAS        20.9408   16.1885   45.0619 C.2         1 YFE       0.0456
     15 OAE        20.5256   17.1847   44.2575 O.co2       1 YFE      -0.5694
     16 OAD        20.1739   15.0746   45.1520 O.co2       1 YFE      -0.5694
     17 CAV        22.6104   17.2247   46.5650 C.ar        1 YFE      -0.0494
     18 CAP        21.6316   18.2200   47.0870 C.3         1 YFE      -0.0147
     19 CAO        20.3248   17.6017   47.6654 C.3         1 YFE      -0.0100
     20 CAT        19.2165   18.5836   47.5485 C.ar        1 YFE      -0.0411
     21 CAK        18.3995   18.6048   46.3930 C.ar        1 YFE      -0.0602
     22 CAI        17.4539   19.6246   46.1981 C.ar        1 YFE      -0.0686
     23 CAH        17.3068   20.6423   47.1611 C.ar        1 YFE      -0.0687
     24 CAJ        18.1084   20.6396   48.3178 C.ar        1 YFE      -0.0686
     25 CAL        19.0592   19.6179   48.5024 C.ar        1 YFE      -0.0602
     26 H1         27.7212   11.2137   43.8239 H           1 YFE       0.0377
     27 H2         27.9865   12.6628   44.8034 H           1 YFE       0.0377
     28 H3         27.1224   12.7742   43.2485 H           1 YFE       0.0377
     29 H4         24.6134   10.5352   45.6324 H           1 YFE       0.0377
     30 H5         26.3139   10.0414   45.6315 H           1 YFE       0.0377
     31 H6         25.3988   10.1055   44.1026 H           1 YFE       0.0377
     32 H7         24.4238   12.8178   45.7729 H           1 YFE       0.0254
     33 H8         25.6964   14.6161   44.0030 H           1 YFE       0.0443
     34 H9         26.5729   14.6118   45.5266 H           1 YFE       0.0443
     35 H10        24.2482   18.0519   47.6138 H           1 YFE       0.0383
     36 H11        27.9188   17.8075   46.3578 H           1 YFE       0.0576
     37 H12        26.4084   18.5498   45.8144 H           1 YFE       0.0576
     38 H13        27.0810   17.1338   44.9500 H           1 YFE       0.0576
     39 H14        22.2458   13.7557   44.6893 H           1 YFE       0.2469
     40 H15        21.3839   18.8913   46.2550 H           1 YFE       0.0441
     41 H16        22.0681   18.8549   47.8685 H           1 YFE       0.0441
     42 H17        20.4761   17.3337   48.7181 H           1 YFE       0.0448
     43 H18        20.0694   16.6747   47.1345 H           1 YFE       0.0448
     44 H19        18.5129   17.8918   45.6638 H           1 YFE       0.0557
     45 H20        16.8791   19.6441   45.3521 H           1 YFE       0.0599
     46 H21        16.6252   21.3910   47.0209 H           1 YFE       0.0559
     47 H22        18.0163   21.3858   49.0168 H           1 YFE       0.0599
     48 H23        19.6690   19.6430   49.3271 H           1 YFE       0.0557
@<TRIPOS>BOND
     1     1     2   1
     2     2     3   1
     3     2     4   2
     4     4     5   1
     5     5     6   1
     6     6     7  ar
     7     6    11  ar
     8     7     8  ar
     9     7     9   1
    10     8    17  ar
    11     9    10   1
    12    11    12   1
    13    11    13  ar
    14    13    14   1
    15    13    17  ar
    16    14    15  ar
    17    14    16  ar
    18    17    18   1
    19    18    19   1
    20    19    20   1
    21    20    21  ar
    22    20    25  ar
    23    21    22  ar
    24    22    23  ar
    25    23    24  ar
    26    24    25  ar
    27     1    26   1
    28     1    27   1
    29     1    28   1
    30     3    29   1
    31     3    30   1
    32     3    31   1
    33     4    32   1
    34     5    33   1
    35     5    34   1
    36     8    35   1
    37    10    36   1
    38    10    37   1
    39    10    38   1
    40    12    39   1
    41    18    40   1
    42    18    41   1
    43    19    42   1
    44    19    43   1
    45    21    44   1
    46    22    45   1
    47    23    46   1
    48    24    47   1
    49    25    48   1
@<TRIPOS>SUBSTRUCTURE
     1  YFE      1

