@<TRIPOS>MOLECULE
2yfe_ligand_019
    48    49
SMALL
GAST_HUCK
****
This file was generated by PARSER (from files_GN.cpp)

@<TRIPOS>ATOM
      1 CAB        19.5978   25.9749   46.3295 C.3         1 YFE      -0.0403
      2 CAR        20.8283   25.9058   47.1175 C.2         1 YFE      -0.0856
      3 CAC        21.5242   27.1555   47.4109 C.3         1 YFE      -0.0403
      4 CAG        21.3295   24.7315   47.5652 C.2         1 YFE      -0.1025
      5 CAN        20.8099   23.4046   47.2516 C.3         1 YFE      -0.0201
      6 CAX        21.7840   22.2708   47.3966 C.ar        1 YFE       0.0155
      7 CAW        23.1090   22.3473   46.8797 C.ar        1 YFE       0.0822
      8 CAM        24.0229   21.3068   47.1377 C.ar        1 YFE      -0.0446
      9 OAQ        23.6083   23.4649   46.2492 O.3         1 YFE      -0.3273
     10 CAA        23.2110   23.6571   44.8778 C.3         1 YFE       0.0581
     11 CAU        21.3752   21.0625   48.0171 C.ar        1 YFE       0.0914
     12 OAF        20.0883   20.9238   48.4392 O.3         1 YFE      -0.3377
     13 CAY        22.2884   20.0028   48.2354 C.ar        1 YFE       0.0231
     14 CAS        21.8233   18.8354   48.8770 C.2         1 YFE       0.0456
     15 OAE        21.0872   17.9373   48.1906 O.co2       1 YFE      -0.5694
     16 OAD        22.0775   18.6227   50.1900 O.co2       1 YFE      -0.5694
     17 CAV        23.6455   20.1340   47.8320 C.ar        1 YFE      -0.0494
     18 CAP        24.6675   19.0700   48.1092 C.3         1 YFE      -0.0147
     19 CAO        24.4535   17.7768   47.2527 C.3         1 YFE      -0.0100
     20 CAT        25.5604   17.2833   46.3792 C.ar        1 YFE      -0.0411
     21 CAK        26.5887   18.1200   45.8686 C.ar        1 YFE      -0.0602
     22 CAI        27.5733   17.6021   45.0045 C.ar        1 YFE      -0.0686
     23 CAH        27.5336   16.2494   44.6211 C.ar        1 YFE      -0.0687
     24 CAJ        26.5040   15.4190   45.0874 C.ar        1 YFE      -0.0686
     25 CAL        25.5258   15.9327   45.9547 C.ar        1 YFE      -0.0602
     26 H1         19.3179   27.0021   46.0862 H           1 YFE       0.0377
     27 H2         18.7716   25.5297   46.8877 H           1 YFE       0.0377
     28 H3         19.7186   25.4388   45.3864 H           1 YFE       0.0377
     29 H4         22.4541   27.0166   47.9683 H           1 YFE       0.0377
     30 H5         20.8758   27.8090   47.9961 H           1 YFE       0.0377
     31 H6         21.7760   27.6572   46.4759 H           1 YFE       0.0377
     32 H7         22.1220   24.7583   48.1689 H           1 YFE       0.0254
     33 H8         20.4402   23.3529   46.2269 H           1 YFE       0.0443
     34 H9         19.9458   23.2812   47.9068 H           1 YFE       0.0443
     35 H10        24.9903   21.4189   46.8224 H           1 YFE       0.0383
     36 H11        23.7696   24.5062   44.4824 H           1 YFE       0.0576
     37 H12        22.1514   23.8954   44.7955 H           1 YFE       0.0576
     38 H13        23.4317   22.7839   44.2611 H           1 YFE       0.0576
     39 H14        19.6088   20.5651   47.6599 H           1 YFE       0.2469
     40 H15        24.5924   18.8057   49.1704 H           1 YFE       0.0441
     41 H16        25.6810   19.4486   48.0165 H           1 YFE       0.0441
     42 H17        23.5780   17.8776   46.6032 H           1 YFE       0.0448
     43 H18        24.2085   16.9775   47.9566 H           1 YFE       0.0448
     44 H19        26.6306   19.1144   46.0824 H           1 YFE       0.0557
     45 H20        28.3050   18.2194   44.6459 H           1 YFE       0.0599
     46 H21        28.2541   15.8695   44.0005 H           1 YFE       0.0559
     47 H22        26.4661   14.4404   44.8023 H           1 YFE       0.0599
     48 H23        24.7812   15.3100   46.2764 H           1 YFE       0.0557
@<TRIPOS>BOND
     1     1     2   1
     2     2     3   1
     3     2     4   2
     4     4     5   1
     5     5     6   1
     6     6     7  ar
     7     6    11  ar
     8     7     8  ar
     9     7     9   1
    10     8    17  ar
    11     9    10   1
    12    11    12   1
    13    11    13  ar
    14    13    14   1
    15    13    17  ar
    16    14    15  ar
    17    14    16  ar
    18    17    18   1
    19    18    19   1
    20    19    20   1
    21    20    21  ar
    22    20    25  ar
    23    21    22  ar
    24    22    23  ar
    25    23    24  ar
    26    24    25  ar
    27     1    26   1
    28     1    27   1
    29     1    28   1
    30     3    29   1
    31     3    30   1
    32     3    31   1
    33     4    32   1
    34     5    33   1
    35     5    34   1
    36     8    35   1
    37    10    36   1
    38    10    37   1
    39    10    38   1
    40    12    39   1
    41    18    40   1
    42    18    41   1
    43    19    42   1
    44    19    43   1
    45    21    44   1
    46    22    45   1
    47    23    46   1
    48    24    47   1
    49    25    48   1
@<TRIPOS>SUBSTRUCTURE
     1  YFE      1

