@<TRIPOS>MOLECULE
2yfe_ligand_004
    48    49
SMALL
GAST_HUCK
****
This file was generated by PARSER (from files_GN.cpp)

@<TRIPOS>ATOM
      1 CAB        26.7381   15.8918   45.1267 C.3         1 YFE      -0.0403
      2 CAR        26.4331   17.1618   45.7740 C.2         1 YFE      -0.0856
      3 CAC        27.4663   18.1969   45.7438 C.3         1 YFE      -0.0403
      4 CAG        25.2297   17.4278   46.3298 C.2         1 YFE      -0.1025
      5 CAN        24.1190   16.5023   46.5984 C.3         1 YFE      -0.0201
      6 CAX        22.7390   17.1145   46.6512 C.ar        1 YFE       0.0155
      7 CAW        21.6558   16.5478   45.9278 C.ar        1 YFE       0.0822
      8 CAM        20.3827   17.1486   45.9981 C.ar        1 YFE      -0.0446
      9 OAQ        21.8001   15.3098   45.3432 O.3         1 YFE      -0.3273
     10 CAA        21.1808   15.0616   44.0713 C.3         1 YFE       0.0581
     11 CAU        22.4554   18.2236   47.4989 C.ar        1 YFE       0.0914
     12 OAF        23.3782   18.5809   48.4401 O.3         1 YFE      -0.3377
     13 CAY        21.2060   18.9058   47.4783 C.ar        1 YFE       0.0231
     14 CAS        21.0561   20.0945   48.2599 C.2         1 YFE       0.0456
     15 OAE        22.1210   20.7756   48.7427 O.co2       1 YFE      -0.5694
     16 OAD        19.8691   20.5348   48.7238 O.co2       1 YFE      -0.5694
     17 CAV        20.1489   18.3568   46.6945 C.ar        1 YFE      -0.0494
     18 CAP        18.7634   18.9183   46.5974 C.3         1 YFE      -0.0147
     19 CAO        17.8457   18.3463   47.7176 C.3         1 YFE      -0.0100
     20 CAT        16.3909   18.6709   47.6805 C.ar        1 YFE      -0.0411
     21 CAK        15.8781   19.9119   47.2220 C.ar        1 YFE      -0.0602
     22 CAI        14.4994   20.1895   47.2776 C.ar        1 YFE      -0.0686
     23 CAH        13.6068   19.2354   47.7994 C.ar        1 YFE      -0.0687
     24 CAJ        14.0964   18.0087   48.2722 C.ar        1 YFE      -0.0686
     25 CAL        15.4732   17.7327   48.2181 C.ar        1 YFE      -0.0602
     26 H1         27.7408   15.8861   44.6942 H           1 YFE       0.0377
     27 H2         26.0383   15.7068   44.3124 H           1 YFE       0.0377
     28 H3         26.6765   15.0752   45.8427 H           1 YFE       0.0377
     29 H4         27.1769   19.1262   46.2390 H           1 YFE       0.0377
     30 H5         27.7086   18.4381   44.7112 H           1 YFE       0.0377
     31 H6         28.3614   17.8343   46.2456 H           1 YFE       0.0377
     32 H7         25.1006   18.3599   46.6261 H           1 YFE       0.0254
     33 H8         24.3144   16.0254   47.5600 H           1 YFE       0.0443
     34 H9         24.1505   15.7139   45.8462 H           1 YFE       0.0443
     35 H10        19.5980   16.6870   45.5320 H           1 YFE       0.0383
     36 H11        21.5068   14.0765   43.7318 H           1 YFE       0.0576
     37 H12        21.4791   15.8047   43.3308 H           1 YFE       0.0576
     38 H13        20.0941   15.0336   44.1466 H           1 YFE       0.0576
     39 H14        23.4741   17.7838   49.0210 H           1 YFE       0.2469
     40 H15        18.3280   18.6712   45.6234 H           1 YFE       0.0441
     41 H16        18.7945   20.0025   46.6239 H           1 YFE       0.0441
     42 H17        18.2188   18.6669   48.6941 H           1 YFE       0.0448
     43 H18        17.9523   17.2589   47.6846 H           1 YFE       0.0448
     44 H19        16.5002   20.6331   46.8558 H           1 YFE       0.0557
     45 H20        14.1459   21.0917   46.9531 H           1 YFE       0.0599
     46 H21        12.6048   19.4396   47.8427 H           1 YFE       0.0559
     47 H22        13.4500   17.3169   48.6662 H           1 YFE       0.0599
     48 H23        15.8027   16.8334   48.5769 H           1 YFE       0.0557
@<TRIPOS>BOND
     1     1     2   1
     2     2     3   1
     3     2     4   2
     4     4     5   1
     5     5     6   1
     6     6     7  ar
     7     6    11  ar
     8     7     8  ar
     9     7     9   1
    10     8    17  ar
    11     9    10   1
    12    11    12   1
    13    11    13  ar
    14    13    14   1
    15    13    17  ar
    16    14    15  ar
    17    14    16  ar
    18    17    18   1
    19    18    19   1
    20    19    20   1
    21    20    21  ar
    22    20    25  ar
    23    21    22  ar
    24    22    23  ar
    25    23    24  ar
    26    24    25  ar
    27     1    26   1
    28     1    27   1
    29     1    28   1
    30     3    29   1
    31     3    30   1
    32     3    31   1
    33     4    32   1
    34     5    33   1
    35     5    34   1
    36     8    35   1
    37    10    36   1
    38    10    37   1
    39    10    38   1
    40    12    39   1
    41    18    40   1
    42    18    41   1
    43    19    42   1
    44    19    43   1
    45    21    44   1
    46    22    45   1
    47    23    46   1
    48    24    47   1
    49    25    48   1
@<TRIPOS>SUBSTRUCTURE
     1  YFE      1

