@<TRIPOS>MOLECULE
2yfe_ligand_013
    48    49
SMALL
GAST_HUCK
****
This file was generated by PARSER (from files_GN.cpp)

@<TRIPOS>ATOM
      1 CAB        22.1123   23.4543   46.1820 C.3         1 YFE      -0.0403
      2 CAR        23.4805   23.1786   45.7588 C.2         1 YFE      -0.0856
      3 CAC        23.9519   23.8414   44.5369 C.3         1 YFE      -0.0403
      4 CAG        24.3243   22.3839   46.4591 C.2         1 YFE      -0.1025
      5 CAN        24.0668   21.5822   47.6582 C.3         1 YFE      -0.0201
      6 CAX        24.2680   20.0960   47.4960 C.ar        1 YFE       0.0155
      7 CAW        23.3079   19.1715   47.9846 C.ar        1 YFE       0.0822
      8 CAM        23.5337   17.7850   47.8527 C.ar        1 YFE      -0.0446
      9 OAQ        22.2554   19.6188   48.7493 O.3         1 YFE      -0.3273
     10 CAA        20.9246   19.2828   48.3206 C.3         1 YFE       0.0581
     11 CAU        25.4790   19.5754   46.9619 C.ar        1 YFE       0.0914
     12 OAF        26.4598   20.4511   46.6027 O.3         1 YFE      -0.3377
     13 CAY        25.6904   18.1809   46.7866 C.ar        1 YFE       0.0231
     14 CAS        26.9119   17.7321   46.2054 C.2         1 YFE       0.0456
     15 OAE        28.0544   18.4633   46.2701 O.co2       1 YFE      -0.5694
     16 OAD        26.9591   16.6247   45.4298 O.co2       1 YFE      -0.5694
     17 CAV        24.6806   17.2621   47.2108 C.ar        1 YFE      -0.0494
     18 CAP        24.7731   15.7647   47.0835 C.3         1 YFE      -0.0147
     19 CAO        24.0312   15.2205   45.8262 C.3         1 YFE      -0.0100
     20 CAT        24.5969   13.9339   45.3302 C.ar        1 YFE      -0.0411
     21 CAK        24.1020   12.6851   45.7813 C.ar        1 YFE      -0.0602
     22 CAI        24.6808   11.4806   45.3408 C.ar        1 YFE      -0.0686
     23 CAH        25.7928   11.5056   44.4748 C.ar        1 YFE      -0.0687
     24 CAJ        26.2977   12.7389   44.0233 C.ar        1 YFE      -0.0686
     25 CAL        25.6879   13.9398   44.4267 C.ar        1 YFE      -0.0602
     26 H1         21.5932   24.1124   45.4796 H           1 YFE       0.0377
     27 H2         22.1249   23.9490   47.1532 H           1 YFE       0.0377
     28 H3         21.5420   22.5287   46.2581 H           1 YFE       0.0377
     29 H4         24.9720   23.5658   44.2488 H           1 YFE       0.0377
     30 H5         23.9351   24.9228   44.6873 H           1 YFE       0.0377
     31 H6         23.2968   23.5858   43.6984 H           1 YFE       0.0377
     32 H7         25.2728   22.3530   46.1455 H           1 YFE       0.0254
     33 H8         23.0680   21.8093   48.0386 H           1 YFE       0.0443
     34 H9         24.7528   21.9188   48.4365 H           1 YFE       0.0443
     35 H10        22.8578   17.1419   48.2699 H           1 YFE       0.0383
     36 H11        20.2285   19.8536   48.9390 H           1 YFE       0.0576
     37 H12        20.7148   18.2213   48.4712 H           1 YFE       0.0576
     38 H13        20.7556   19.5450   47.2726 H           1 YFE       0.0576
     39 H14        27.0362   20.5119   47.4064 H           1 YFE       0.2469
     40 H15        24.3507   15.2751   47.9662 H           1 YFE       0.0441
     41 H16        25.8160   15.4420   47.0601 H           1 YFE       0.0441
     42 H17        24.0773   15.9594   45.0239 H           1 YFE       0.0448
     43 H18        22.9701   15.0870   46.0565 H           1 YFE       0.0448
     44 H19        23.3142   12.6472   46.4317 H           1 YFE       0.0557
     45 H20        24.3071   10.5839   45.6560 H           1 YFE       0.0599
     46 H21        26.2294   10.6322   44.1744 H           1 YFE       0.0559
     47 H22        27.1083   12.7633   43.3965 H           1 YFE       0.0599
     48 H23        26.0580   14.8276   44.0654 H           1 YFE       0.0557
@<TRIPOS>BOND
     1     1     2   1
     2     2     3   1
     3     2     4   2
     4     4     5   1
     5     5     6   1
     6     6     7  ar
     7     6    11  ar
     8     7     8  ar
     9     7     9   1
    10     8    17  ar
    11     9    10   1
    12    11    12   1
    13    11    13  ar
    14    13    14   1
    15    13    17  ar
    16    14    15  ar
    17    14    16  ar
    18    17    18   1
    19    18    19   1
    20    19    20   1
    21    20    21  ar
    22    20    25  ar
    23    21    22  ar
    24    22    23  ar
    25    23    24  ar
    26    24    25  ar
    27     1    26   1
    28     1    27   1
    29     1    28   1
    30     3    29   1
    31     3    30   1
    32     3    31   1
    33     4    32   1
    34     5    33   1
    35     5    34   1
    36     8    35   1
    37    10    36   1
    38    10    37   1
    39    10    38   1
    40    12    39   1
    41    18    40   1
    42    18    41   1
    43    19    42   1
    44    19    43   1
    45    21    44   1
    46    22    45   1
    47    23    46   1
    48    24    47   1
    49    25    48   1
@<TRIPOS>SUBSTRUCTURE
     1  YFE      1

