@<TRIPOS>MOLECULE
2yfe_ligand_010
    48    49
SMALL
GAST_HUCK
****
This file was generated by PARSER (from files_GN.cpp)

@<TRIPOS>ATOM
      1 CAB        21.1162   24.2816   48.4323 C.3         1 YFE      -0.0403
      2 CAR        21.5912   24.0253   47.0744 C.2         1 YFE      -0.0856
      3 CAC        20.6714   24.3121   45.9738 C.3         1 YFE      -0.0403
      4 CAG        22.8297   23.5456   46.8228 C.2         1 YFE      -0.1025
      5 CAN        23.8662   23.2009   47.7933 C.3         1 YFE      -0.0201
      6 CAX        24.4280   21.8403   47.5138 C.ar        1 YFE       0.0155
      7 CAW        23.6607   20.6910   47.8209 C.ar        1 YFE       0.0822
      8 CAM        24.1810   19.4104   47.5714 C.ar        1 YFE      -0.0446
      9 OAQ        22.4691   20.7887   48.5036 O.3         1 YFE      -0.3273
     10 CAA        21.2812   20.6208   47.7011 C.3         1 YFE       0.0581
     11 CAU        25.7157   21.6693   46.9413 C.ar        1 YFE       0.0914
     12 OAF        26.4631   22.7825   46.6668 O.3         1 YFE      -0.3377
     13 CAY        26.2406   20.3714   46.6747 C.ar        1 YFE       0.0231
     14 CAS        27.5396   20.2583   46.1078 C.2         1 YFE       0.0456
     15 OAE        28.0519   21.2113   45.2890 O.co2       1 YFE      -0.5694
     16 OAD        28.3769   19.2678   46.4983 O.co2       1 YFE      -0.5694
     17 CAV        25.4417   19.2195   46.9567 C.ar        1 YFE      -0.0494
     18 CAP        25.8860   17.8515   46.5271 C.3         1 YFE      -0.0147
     19 CAO        24.8442   16.6928   46.4978 C.3         1 YFE      -0.0100
     20 CAT        25.1843   15.4082   45.8175 C.ar        1 YFE      -0.0411
     21 CAK        24.3740   14.2726   46.0845 C.ar        1 YFE      -0.0602
     22 CAI        24.6113   13.0384   45.4515 C.ar        1 YFE      -0.0686
     23 CAH        25.6613   12.9167   44.5209 C.ar        1 YFE      -0.0687
     24 CAJ        26.4720   14.0351   44.2317 C.ar        1 YFE      -0.0686
     25 CAL        26.2450   15.2622   44.8846 C.ar        1 YFE      -0.0602
     26 H1         20.1021   24.6825   48.4513 H           1 YFE       0.0377
     27 H2         21.7706   25.0047   48.9250 H           1 YFE       0.0377
     28 H3         21.1128   23.3542   49.0076 H           1 YFE       0.0377
     29 H4         21.0992   24.1143   44.9885 H           1 YFE       0.0377
     30 H5         20.3796   25.3615   46.0042 H           1 YFE       0.0377
     31 H6         19.7778   23.6971   46.0751 H           1 YFE       0.0377
     32 H7         23.0989   23.4386   45.8663 H           1 YFE       0.0254
     33 H8         23.5209   23.2190   48.8300 H           1 YFE       0.0443
     34 H9         24.6375   23.9727   47.7199 H           1 YFE       0.0443
     35 H10        23.6155   18.6128   47.8483 H           1 YFE       0.0383
     36 H11        20.4205   20.6934   48.3680 H           1 YFE       0.0576
     37 H12        21.2573   19.6380   47.2129 H           1 YFE       0.0576
     38 H13        21.1934   21.4040   46.9409 H           1 YFE       0.0576
     39 H14        27.3124   22.6580   47.1507 H           1 YFE       0.2469
     40 H15        26.7085   17.5321   47.1752 H           1 YFE       0.0441
     41 H16        26.2775   17.9534   45.5096 H           1 YFE       0.0441
     42 H17        23.9334   17.0591   46.0156 H           1 YFE       0.0448
     43 H18        24.6064   16.4487   47.5333 H           1 YFE       0.0448
     44 H19        23.5916   14.3443   46.7426 H           1 YFE       0.0557
     45 H20        24.0145   12.2383   45.6533 H           1 YFE       0.0599
     46 H21        25.8336   12.0198   44.0565 H           1 YFE       0.0559
     47 H22        27.2232   13.9484   43.5406 H           1 YFE       0.0599
     48 H23        26.8570   16.0514   44.6462 H           1 YFE       0.0557
@<TRIPOS>BOND
     1     1     2   1
     2     2     3   1
     3     2     4   2
     4     4     5   1
     5     5     6   1
     6     6     7  ar
     7     6    11  ar
     8     7     8  ar
     9     7     9   1
    10     8    17  ar
    11     9    10   1
    12    11    12   1
    13    11    13  ar
    14    13    14   1
    15    13    17  ar
    16    14    15  ar
    17    14    16  ar
    18    17    18   1
    19    18    19   1
    20    19    20   1
    21    20    21  ar
    22    20    25  ar
    23    21    22  ar
    24    22    23  ar
    25    23    24  ar
    26    24    25  ar
    27     1    26   1
    28     1    27   1
    29     1    28   1
    30     3    29   1
    31     3    30   1
    32     3    31   1
    33     4    32   1
    34     5    33   1
    35     5    34   1
    36     8    35   1
    37    10    36   1
    38    10    37   1
    39    10    38   1
    40    12    39   1
    41    18    40   1
    42    18    41   1
    43    19    42   1
    44    19    43   1
    45    21    44   1
    46    22    45   1
    47    23    46   1
    48    24    47   1
    49    25    48   1
@<TRIPOS>SUBSTRUCTURE
     1  YFE      1

