@<TRIPOS>MOLECULE
2yfe_ligand_006
    48    49
SMALL
GAST_HUCK
****
This file was generated by PARSER (from files_GN.cpp)

@<TRIPOS>ATOM
      1 CAB        19.2304   21.4442   47.3226 C.3         1 YFE      -0.0403
      2 CAR        20.6259   21.1926   47.6778 C.2         1 YFE      -0.0856
      3 CAC        21.5735   22.2940   47.5071 C.3         1 YFE      -0.0403
      4 CAG        21.0408   20.0020   48.1712 C.2         1 YFE      -0.1025
      5 CAN        20.2122   18.8347   48.4560 C.3         1 YFE      -0.0201
      6 CAX        19.7304   18.1093   47.2415 C.ar        1 YFE       0.0155
      7 CAW        18.3566   18.0850   46.8939 C.ar        1 YFE       0.0822
      8 CAM        17.9291   17.4207   45.7302 C.ar        1 YFE      -0.0446
      9 OAQ        17.4186   18.7830   47.6133 O.3         1 YFE      -0.3273
     10 CAA        16.6944   17.9853   48.5763 C.3         1 YFE       0.0581
     11 CAU        20.6350   17.3737   46.4317 C.ar        1 YFE       0.0914
     12 OAF        21.9411   17.2969   46.8039 O.3         1 YFE      -0.3377
     13 CAY        20.1977   16.6534   45.2858 C.ar        1 YFE       0.0231
     14 CAS        21.1212   15.8592   44.5623 C.2         1 YFE       0.0456
     15 OAE        21.0581   14.5121   44.6774 O.co2       1 YFE      -0.5694
     16 OAD        22.2810   16.3803   44.0901 O.co2       1 YFE      -0.5694
     17 CAV        18.8275   16.7178   44.8938 C.ar        1 YFE      -0.0494
     18 CAP        18.2572   16.1548   43.6247 C.3         1 YFE      -0.0147
     19 CAO        17.8827   17.2758   42.6004 C.3         1 YFE      -0.0100
     20 CAT        16.5048   17.2361   42.0364 C.ar        1 YFE      -0.0411
     21 CAK        15.3924   17.0791   42.9015 C.ar        1 YFE      -0.0602
     22 CAI        14.0778   17.2126   42.4216 C.ar        1 YFE      -0.0686
     23 CAH        13.8527   17.5235   41.0712 C.ar        1 YFE      -0.0687
     24 CAJ        14.9432   17.6600   40.1908 C.ar        1 YFE      -0.0686
     25 CAL        16.2624   17.5036   40.6661 C.ar        1 YFE      -0.0602
     26 H1         19.0670   22.4775   47.0052 H           1 YFE       0.0377
     27 H2         18.5847   21.2603   48.1835 H           1 YFE       0.0377
     28 H3         18.9283   20.7907   46.5017 H           1 YFE       0.0377
     29 H4         22.5976   22.0492   47.8093 H           1 YFE       0.0377
     30 H5         21.2483   23.1472   48.1103 H           1 YFE       0.0377
     31 H6         21.5993   22.5960   46.4561 H           1 YFE       0.0377
     32 H7         22.0026   19.9120   48.4132 H           1 YFE       0.0254
     33 H8         19.3887   19.1439   49.0995 H           1 YFE       0.0443
     34 H9         20.7902   18.1258   49.0502 H           1 YFE       0.0443
     35 H10        16.9376   17.4685   45.4814 H           1 YFE       0.0383
     36 H11        15.9766   18.6332   49.0861 H           1 YFE       0.0576
     37 H12        17.3704   17.5668   49.3304 H           1 YFE       0.0576
     38 H13        16.1370   17.1726   48.0953 H           1 YFE       0.0576
     39 H14        22.2939   18.2073   46.7065 H           1 YFE       0.2469
     40 H15        17.3855   15.5437   43.8766 H           1 YFE       0.0441
     41 H16        18.9530   15.4702   43.1325 H           1 YFE       0.0441
     42 H17        18.6248   17.2503   41.7934 H           1 YFE       0.0448
     43 H18        17.9872   18.2719   43.0508 H           1 YFE       0.0448
     44 H19        15.5289   16.8894   43.8953 H           1 YFE       0.0557
     45 H20        13.2902   17.1141   43.0651 H           1 YFE       0.0599
     46 H21        12.8994   17.6583   40.7297 H           1 YFE       0.0559
     47 H22        14.7806   17.8941   39.2072 H           1 YFE       0.0599
     48 H23        17.0389   17.6357   40.0155 H           1 YFE       0.0557
@<TRIPOS>BOND
     1     1     2   1
     2     2     3   1
     3     2     4   2
     4     4     5   1
     5     5     6   1
     6     6     7  ar
     7     6    11  ar
     8     7     8  ar
     9     7     9   1
    10     8    17  ar
    11     9    10   1
    12    11    12   1
    13    11    13  ar
    14    13    14   1
    15    13    17  ar
    16    14    15  ar
    17    14    16  ar
    18    17    18   1
    19    18    19   1
    20    19    20   1
    21    20    21  ar
    22    20    25  ar
    23    21    22  ar
    24    22    23  ar
    25    23    24  ar
    26    24    25  ar
    27     1    26   1
    28     1    27   1
    29     1    28   1
    30     3    29   1
    31     3    30   1
    32     3    31   1
    33     4    32   1
    34     5    33   1
    35     5    34   1
    36     8    35   1
    37    10    36   1
    38    10    37   1
    39    10    38   1
    40    12    39   1
    41    18    40   1
    42    18    41   1
    43    19    42   1
    44    19    43   1
    45    21    44   1
    46    22    45   1
    47    23    46   1
    48    24    47   1
    49    25    48   1
@<TRIPOS>SUBSTRUCTURE
     1  YFE      1

