@<TRIPOS>MOLECULE
2yfe_ligand_023
    48    49
SMALL
GAST_HUCK
****
This file was generated by PARSER (from files_GN.cpp)

@<TRIPOS>ATOM
      1 CAB        22.5709   22.4057   47.5731 C.3         1 YFE      -0.0403
      2 CAR        23.8122   21.7444   47.1972 C.2         1 YFE      -0.0856
      3 CAC        24.8794   22.5754   46.6391 C.3         1 YFE      -0.0403
      4 CAG        24.0181   20.4220   47.3889 C.2         1 YFE      -0.1025
      5 CAN        23.1318   19.4244   47.9923 C.3         1 YFE      -0.0201
      6 CAX        22.9722   18.1835   47.1531 C.ar        1 YFE       0.0155
      7 CAW        24.1040   17.3838   46.8973 C.ar        1 YFE       0.0822
      8 CAM        23.9396   16.1861   46.1967 C.ar        1 YFE      -0.0446
      9 OAQ        25.3353   17.6759   47.4480 O.3         1 YFE      -0.3273
     10 CAA        26.4507   17.8005   46.5486 C.3         1 YFE       0.0581
     11 CAU        21.7166   17.7719   46.6328 C.ar        1 YFE       0.0914
     12 OAF        20.6538   18.5779   46.9077 O.3         1 YFE      -0.3377
     13 CAY        21.5541   16.5670   45.8743 C.ar        1 YFE       0.0231
     14 CAS        20.2812   16.3215   45.2440 C.2         1 YFE       0.0456
     15 OAE        19.3056   17.2590   45.1731 O.co2       1 YFE      -0.5694
     16 OAD        19.9862   15.2574   44.4736 O.co2       1 YFE      -0.5694
     17 CAV        22.6920   15.6998   45.7413 C.ar        1 YFE      -0.0494
     18 CAP        22.7308   14.3119   45.1387 C.3         1 YFE      -0.0147
     19 CAO        23.5309   13.2227   45.9583 C.3         1 YFE      -0.0100
     20 CAT        24.6367   12.5353   45.2291 C.ar        1 YFE      -0.0411
     21 CAK        24.7898   11.1334   45.3152 C.ar        1 YFE      -0.0602
     22 CAI        25.8657   10.4843   44.6852 C.ar        1 YFE      -0.0686
     23 CAH        26.8109   11.2324   43.9603 C.ar        1 YFE      -0.0687
     24 CAJ        26.6808   12.6230   43.8742 C.ar        1 YFE      -0.0686
     25 CAL        25.6122   13.2691   44.5101 C.ar        1 YFE      -0.0602
     26 H1         22.5929   23.4778   47.3657 H           1 YFE       0.0377
     27 H2         22.3910   22.2849   48.6421 H           1 YFE       0.0377
     28 H3         21.7349   21.9820   47.0187 H           1 YFE       0.0377
     29 H4         25.7920   22.0216   46.3962 H           1 YFE       0.0377
     30 H5         25.1561   23.3511   47.3584 H           1 YFE       0.0377
     31 H6         24.5352   23.0537   45.7233 H           1 YFE       0.0377
     32 H7         24.9103   20.0816   47.1316 H           1 YFE       0.0254
     33 H8         22.1676   19.8616   48.2450 H           1 YFE       0.0443
     34 H9         23.5699   19.1196   48.9432 H           1 YFE       0.0443
     35 H10        24.7732   15.6260   46.0762 H           1 YFE       0.0383
     36 H11        27.3030   18.1666   47.1121 H           1 YFE       0.0576
     37 H12        26.2478   18.4998   45.7413 H           1 YFE       0.0576
     38 H13        26.7245   16.8382   46.1271 H           1 YFE       0.0576
     39 H14        20.1185   18.0735   47.5511 H           1 YFE       0.2469
     40 H15        23.1478   14.4237   44.1324 H           1 YFE       0.0441
     41 H16        21.7362   13.8905   44.9998 H           1 YFE       0.0441
     42 H17        22.8121   12.4974   46.3484 H           1 YFE       0.0448
     43 H18        23.9790   13.6529   46.8541 H           1 YFE       0.0448
     44 H19        24.1333   10.5687   45.8643 H           1 YFE       0.0557
     45 H20        25.9641    9.4705   44.7543 H           1 YFE       0.0599
     46 H21        27.5909   10.7675   43.4956 H           1 YFE       0.0559
     47 H22        27.3537   13.1735   43.3463 H           1 YFE       0.0599
     48 H23        25.5518   14.2814   44.4310 H           1 YFE       0.0557
@<TRIPOS>BOND
     1     1     2   1
     2     2     3   1
     3     2     4   2
     4     4     5   1
     5     5     6   1
     6     6     7  ar
     7     6    11  ar
     8     7     8  ar
     9     7     9   1
    10     8    17  ar
    11     9    10   1
    12    11    12   1
    13    11    13  ar
    14    13    14   1
    15    13    17  ar
    16    14    15  ar
    17    14    16  ar
    18    17    18   1
    19    18    19   1
    20    19    20   1
    21    20    21  ar
    22    20    25  ar
    23    21    22  ar
    24    22    23  ar
    25    23    24  ar
    26    24    25  ar
    27     1    26   1
    28     1    27   1
    29     1    28   1
    30     3    29   1
    31     3    30   1
    32     3    31   1
    33     4    32   1
    34     5    33   1
    35     5    34   1
    36     8    35   1
    37    10    36   1
    38    10    37   1
    39    10    38   1
    40    12    39   1
    41    18    40   1
    42    18    41   1
    43    19    42   1
    44    19    43   1
    45    21    44   1
    46    22    45   1
    47    23    46   1
    48    24    47   1
    49    25    48   1
@<TRIPOS>SUBSTRUCTURE
     1  YFE      1

