@<TRIPOS>MOLECULE
2yfe_ligand_015
    48    49
SMALL
GAST_HUCK
****
This file was generated by PARSER (from files_GN.cpp)

@<TRIPOS>ATOM
      1 CAB        16.1413   17.6165   44.9454 C.3         1 YFE      -0.0403
      2 CAR        17.2341   17.8775   44.0134 C.2         1 YFE      -0.0856
      3 CAC        16.9053   17.9477   42.5884 C.3         1 YFE      -0.0403
      4 CAG        18.5184   18.0221   44.4258 C.2         1 YFE      -0.1025
      5 CAN        18.9950   17.9011   45.8009 C.3         1 YFE      -0.0201
      6 CAX        20.4169   17.4516   45.9188 C.ar        1 YFE       0.0155
      7 CAW        20.8263   16.2583   45.2710 C.ar        1 YFE       0.0822
      8 CAM        22.1446   15.7873   45.4184 C.ar        1 YFE      -0.0446
      9 OAQ        19.8960   15.5016   44.6066 O.3         1 YFE      -0.3273
     10 CAA        20.3302   14.8698   43.3852 C.3         1 YFE       0.0581
     11 CAU        21.3732   18.1640   46.6902 C.ar        1 YFE       0.0914
     12 OAF        21.0006   19.3476   47.2512 O.3         1 YFE      -0.3377
     13 CAY        22.7080   17.6997   46.8408 C.ar        1 YFE       0.0231
     14 CAS        23.6547   18.5182   47.5193 C.2         1 YFE       0.0456
     15 OAE        24.9282   18.6301   47.0603 O.co2       1 YFE      -0.5694
     16 OAD        23.3143   19.3247   48.5516 O.co2       1 YFE      -0.5694
     17 CAV        23.0920   16.4622   46.2345 C.ar        1 YFE      -0.0494
     18 CAP        24.4490   15.8257   46.4382 C.3         1 YFE      -0.0147
     19 CAO        24.4876   14.2731   46.6902 C.3         1 YFE      -0.0100
     20 CAT        25.2307   13.3453   45.7736 C.ar        1 YFE      -0.0411
     21 CAK        25.2891   11.9778   46.1535 C.ar        1 YFE      -0.0602
     22 CAI        26.0117   11.0371   45.3927 C.ar        1 YFE      -0.0686
     23 CAH        26.6924   11.4502   44.2354 C.ar        1 YFE      -0.0687
     24 CAJ        26.6407   12.7960   43.8371 C.ar        1 YFE      -0.0686
     25 CAL        25.9045   13.7356   44.5873 C.ar        1 YFE      -0.0602
     26 H1         15.1725   17.5482   44.4450 H           1 YFE       0.0377
     27 H2         16.0768   18.4237   45.6771 H           1 YFE       0.0377
     28 H3         16.3017   16.6737   45.4675 H           1 YFE       0.0377
     29 H4         17.7700   18.1427   41.9456 H           1 YFE       0.0377
     30 H5         16.1797   18.7495   42.4158 H           1 YFE       0.0377
     31 H6         16.4611   17.0004   42.2665 H           1 YFE       0.0377
     32 H7         19.2045   18.2232   43.7300 H           1 YFE       0.0254
     33 H8         18.3966   17.1638   46.3375 H           1 YFE       0.0443
     34 H9         18.8205   18.8593   46.2900 H           1 YFE       0.0443
     35 H10        22.3986   14.9131   44.9573 H           1 YFE       0.0383
     36 H11        19.4472   14.5571   42.8298 H           1 YFE       0.0576
     37 H12        20.9265   13.9759   43.6224 H           1 YFE       0.0576
     38 H13        20.9197   15.5469   42.7513 H           1 YFE       0.0576
     39 H14        20.8814   19.1439   48.2054 H           1 YFE       0.2469
     40 H15        24.9142   16.2672   47.3328 H           1 YFE       0.0441
     41 H16        25.0787   16.1232   45.6020 H           1 YFE       0.0441
     42 H17        23.4559   13.9036   46.7403 H           1 YFE       0.0448
     43 H18        24.9097   14.1159   47.6870 H           1 YFE       0.0448
     44 H19        24.8220   11.6541   47.0020 H           1 YFE       0.0557
     45 H20        26.0513   10.0624   45.6868 H           1 YFE       0.0599
     46 H21        27.2162   10.7739   43.6782 H           1 YFE       0.0559
     47 H22        27.1254   13.1000   42.9933 H           1 YFE       0.0599
     48 H23        25.8738   14.7006   44.2549 H           1 YFE       0.0557
@<TRIPOS>BOND
     1     1     2   1
     2     2     3   1
     3     2     4   2
     4     4     5   1
     5     5     6   1
     6     6     7  ar
     7     6    11  ar
     8     7     8  ar
     9     7     9   1
    10     8    17  ar
    11     9    10   1
    12    11    12   1
    13    11    13  ar
    14    13    14   1
    15    13    17  ar
    16    14    15  ar
    17    14    16  ar
    18    17    18   1
    19    18    19   1
    20    19    20   1
    21    20    21  ar
    22    20    25  ar
    23    21    22  ar
    24    22    23  ar
    25    23    24  ar
    26    24    25  ar
    27     1    26   1
    28     1    27   1
    29     1    28   1
    30     3    29   1
    31     3    30   1
    32     3    31   1
    33     4    32   1
    34     5    33   1
    35     5    34   1
    36     8    35   1
    37    10    36   1
    38    10    37   1
    39    10    38   1
    40    12    39   1
    41    18    40   1
    42    18    41   1
    43    19    42   1
    44    19    43   1
    45    21    44   1
    46    22    45   1
    47    23    46   1
    48    24    47   1
    49    25    48   1
@<TRIPOS>SUBSTRUCTURE
     1  YFE      1

