@<TRIPOS>MOLECULE
2yfe_ligand_011
    48    49
SMALL
GAST_HUCK
****
This file was generated by PARSER (from files_GN.cpp)

@<TRIPOS>ATOM
      1 CAB        24.7841   12.9122   44.6678 C.3         1 YFE      -0.0403
      2 CAR        24.8600   13.1761   46.1037 C.2         1 YFE      -0.0856
      3 CAC        25.0123   12.0237   46.9918 C.3         1 YFE      -0.0403
      4 CAG        24.8341   14.4304   46.6186 C.2         1 YFE      -0.1025
      5 CAN        24.7356   15.6983   45.9036 C.3         1 YFE      -0.0201
      6 CAX        23.5025   16.4498   46.3076 C.ar        1 YFE       0.0155
      7 CAW        22.2846   16.2454   45.6237 C.ar        1 YFE       0.0822
      8 CAM        21.1504   17.0032   45.9627 C.ar        1 YFE      -0.0446
      9 OAQ        22.2142   15.3701   44.5700 O.3         1 YFE      -0.3273
     10 CAA        21.3743   14.2213   44.8029 C.3         1 YFE       0.0581
     11 CAU        23.5322   17.3865   47.3717 C.ar        1 YFE       0.0914
     12 OAF        24.7082   17.6440   48.0022 O.3         1 YFE      -0.3377
     13 CAY        22.3627   18.0922   47.7671 C.ar        1 YFE       0.0231
     14 CAS        22.4793   19.0288   48.8166 C.2         1 YFE       0.0456
     15 OAE        22.5960   18.6280   50.1080 O.co2       1 YFE      -0.5694
     16 OAD        22.5458   20.3531   48.5398 O.co2       1 YFE      -0.5694
     17 CAV        21.1374   17.8937   47.0621 C.ar        1 YFE      -0.0494
     18 CAP        19.8527   18.5889   47.4132 C.3         1 YFE      -0.0147
     19 CAO        18.6130   17.6476   47.5254 C.3         1 YFE      -0.0100
     20 CAT        17.2974   18.2306   47.9326 C.ar        1 YFE      -0.0411
     21 CAK        17.0961   19.5892   48.2830 C.ar        1 YFE      -0.0602
     22 CAI        15.8361   20.0477   48.7166 C.ar        1 YFE      -0.0686
     23 CAH        14.7505   19.1591   48.7901 C.ar        1 YFE      -0.0687
     24 CAJ        14.9176   17.8177   48.4112 C.ar        1 YFE      -0.0686
     25 CAL        16.1778   17.3627   47.9830 C.ar        1 YFE      -0.0602
     26 H1         24.7943   11.8449   44.4399 H           1 YFE       0.0377
     27 H2         25.6358   13.3653   44.1585 H           1 YFE       0.0377
     28 H3         23.8652   13.3226   44.2475 H           1 YFE       0.0377
     29 H4         25.1993   12.2991   48.0321 H           1 YFE       0.0377
     30 H5         25.8555   11.4122   46.6674 H           1 YFE       0.0377
     31 H6         24.1057   11.4193   46.9603 H           1 YFE       0.0377
     32 H7         24.9269   14.5255   47.6067 H           1 YFE       0.0254
     33 H8         24.7467   15.5628   44.8218 H           1 YFE       0.0443
     34 H9         25.6329   16.2790   46.1240 H           1 YFE       0.0443
     35 H10        20.3067   16.8776   45.4053 H           1 YFE       0.0383
     36 H11        21.4635   13.5479   43.9475 H           1 YFE       0.0576
     37 H12        20.3238   14.5092   44.8893 H           1 YFE       0.0576
     38 H13        21.6688   13.6673   45.6997 H           1 YFE       0.0576
     39 H14        25.1560   18.2854   47.4113 H           1 YFE       0.2469
     40 H15        19.6574   19.3459   46.6513 H           1 YFE       0.0441
     41 H16        19.9358   19.1079   48.3683 H           1 YFE       0.0441
     42 H17        18.8592   16.8587   48.2450 H           1 YFE       0.0448
     43 H18        18.4470   17.1751   46.5548 H           1 YFE       0.0448
     44 H19        17.8628   20.2641   48.2328 H           1 YFE       0.0557
     45 H20        15.7083   21.0295   48.9738 H           1 YFE       0.0599
     46 H21        13.8409   19.4883   49.1123 H           1 YFE       0.0559
     47 H22        14.1255   17.1736   48.4421 H           1 YFE       0.0599
     48 H23        16.2757   16.3824   47.7093 H           1 YFE       0.0557
@<TRIPOS>BOND
     1     1     2   1
     2     2     3   1
     3     2     4   2
     4     4     5   1
     5     5     6   1
     6     6     7  ar
     7     6    11  ar
     8     7     8  ar
     9     7     9   1
    10     8    17  ar
    11     9    10   1
    12    11    12   1
    13    11    13  ar
    14    13    14   1
    15    13    17  ar
    16    14    15  ar
    17    14    16  ar
    18    17    18   1
    19    18    19   1
    20    19    20   1
    21    20    21  ar
    22    20    25  ar
    23    21    22  ar
    24    22    23  ar
    25    23    24  ar
    26    24    25  ar
    27     1    26   1
    28     1    27   1
    29     1    28   1
    30     3    29   1
    31     3    30   1
    32     3    31   1
    33     4    32   1
    34     5    33   1
    35     5    34   1
    36     8    35   1
    37    10    36   1
    38    10    37   1
    39    10    38   1
    40    12    39   1
    41    18    40   1
    42    18    41   1
    43    19    42   1
    44    19    43   1
    45    21    44   1
    46    22    45   1
    47    23    46   1
    48    24    47   1
    49    25    48   1
@<TRIPOS>SUBSTRUCTURE
     1  YFE      1

