@<TRIPOS>MOLECULE
2yfe_ligand_025
    48    49
SMALL
GAST_HUCK
****
This file was generated by PARSER (from files_GN.cpp)

@<TRIPOS>ATOM
      1 CAB        16.9682   18.5233   47.5162 C.3         1 YFE      -0.0403
      2 CAR        17.6098   19.0878   46.3335 C.2         1 YFE      -0.0856
      3 CAC        17.1629   20.4152   45.8984 C.3         1 YFE      -0.0403
      4 CAG        18.5947   18.4468   45.6534 C.2         1 YFE      -0.1025
      5 CAN        19.2382   17.1724   45.9894 C.3         1 YFE      -0.0201
      6 CAX        20.6512   17.3343   46.4626 C.ar        1 YFE       0.0155
      7 CAW        21.7319   16.6473   45.8498 C.ar        1 YFE       0.0822
      8 CAM        23.0487   16.8310   46.3179 C.ar        1 YFE      -0.0446
      9 OAQ        21.5396   15.8195   44.7764 O.3         1 YFE      -0.3273
     10 CAA        21.4664   14.4229   45.1256 C.3         1 YFE       0.0581
     11 CAU        20.9239   18.1218   47.6113 C.ar        1 YFE       0.0914
     12 OAF        19.8922   18.7559   48.2405 O.3         1 YFE      -0.3377
     13 CAY        22.2483   18.2684   48.1019 C.ar        1 YFE       0.0231
     14 CAS        22.4627   19.0887   49.2194 C.2         1 YFE       0.0456
     15 OAE        22.4863   18.5292   50.4499 O.co2       1 YFE      -0.5694
     16 OAD        22.1508   20.3919   49.0984 O.co2       1 YFE      -0.5694
     17 CAV        23.3406   17.6418   47.4397 C.ar        1 YFE      -0.0494
     18 CAP        24.7775   17.7865   47.8596 C.3         1 YFE      -0.0147
     19 CAO        25.7062   18.5582   46.8752 C.3         1 YFE      -0.0100
     20 CAT        25.6227   20.0520   46.8765 C.ar        1 YFE      -0.0411
     21 CAK        24.3930   20.7435   47.0534 C.ar        1 YFE      -0.0602
     22 CAI        24.3450   22.1513   47.0213 C.ar        1 YFE      -0.0686
     23 CAH        25.5196   22.8908   46.7945 C.ar        1 YFE      -0.0687
     24 CAJ        26.7382   22.2201   46.5744 C.ar        1 YFE      -0.0686
     25 CAL        26.7865   20.8142   46.6264 C.ar        1 YFE      -0.0602
     26 H1         16.2263   19.1970   47.9542 H           1 YFE       0.0377
     27 H2         17.7108   18.3163   48.2946 H           1 YFE       0.0377
     28 H3         16.4549   17.5985   47.2572 H           1 YFE       0.0377
     29 H4         17.6114   20.7460   44.9595 H           1 YFE       0.0377
     30 H5         17.4207   21.1473   46.6668 H           1 YFE       0.0377
     31 H6         16.0822   20.4185   45.7661 H           1 YFE       0.0377
     32 H7         18.9453   18.8825   44.8307 H           1 YFE       0.0254
     33 H8         19.1736   16.5443   45.1059 H           1 YFE       0.0443
     34 H9         18.7015   16.6509   46.7829 H           1 YFE       0.0443
     35 H10        23.8094   16.3474   45.8376 H           1 YFE       0.0383
     36 H11        21.2846   13.8542   44.2116 H           1 YFE       0.0576
     37 H12        20.6474   14.2251   45.8192 H           1 YFE       0.0576
     38 H13        22.4014   14.0684   45.5623 H           1 YFE       0.0576
     39 H14        19.7790   18.2864   49.0983 H           1 YFE       0.2469
     40 H15        25.1702   16.7721   47.9665 H           1 YFE       0.0441
     41 H16        24.8780   18.2526   48.8436 H           1 YFE       0.0441
     42 H17        25.5370   18.1976   45.8631 H           1 YFE       0.0448
     43 H18        26.7254   18.2590   47.1266 H           1 YFE       0.0448
     44 H19        23.5166   20.2398   47.2232 H           1 YFE       0.0557
     45 H20        23.4591   22.6359   47.1598 H           1 YFE       0.0599
     46 H21        25.4931   23.9161   46.7978 H           1 YFE       0.0559
     47 H22        27.5912   22.7513   46.3963 H           1 YFE       0.0599
     48 H23        27.6870   20.3511   46.4815 H           1 YFE       0.0557
@<TRIPOS>BOND
     1     1     2   1
     2     2     3   1
     3     2     4   2
     4     4     5   1
     5     5     6   1
     6     6     7  ar
     7     6    11  ar
     8     7     8  ar
     9     7     9   1
    10     8    17  ar
    11     9    10   1
    12    11    12   1
    13    11    13  ar
    14    13    14   1
    15    13    17  ar
    16    14    15  ar
    17    14    16  ar
    18    17    18   1
    19    18    19   1
    20    19    20   1
    21    20    21  ar
    22    20    25  ar
    23    21    22  ar
    24    22    23  ar
    25    23    24  ar
    26    24    25  ar
    27     1    26   1
    28     1    27   1
    29     1    28   1
    30     3    29   1
    31     3    30   1
    32     3    31   1
    33     4    32   1
    34     5    33   1
    35     5    34   1
    36     8    35   1
    37    10    36   1
    38    10    37   1
    39    10    38   1
    40    12    39   1
    41    18    40   1
    42    18    41   1
    43    19    42   1
    44    19    43   1
    45    21    44   1
    46    22    45   1
    47    23    46   1
    48    24    47   1
    49    25    48   1
@<TRIPOS>SUBSTRUCTURE
     1  YFE      1

