@<TRIPOS>MOLECULE
2yfe_ligand_037
    48    49
SMALL
GAST_HUCK
****
This file was generated by PARSER (from files_GN.cpp)

@<TRIPOS>ATOM
      1 CAB        17.2216   18.0604   48.5007 C.3         1 YFE      -0.0403
      2 CAR        16.6087   17.6719   47.2302 C.2         1 YFE      -0.0856
      3 CAC        15.5265   16.6907   47.2847 C.3         1 YFE      -0.0403
      4 CAG        17.0070   18.1790   46.0394 C.2         1 YFE      -0.1025
      5 CAN        18.0290   19.1964   45.8123 C.3         1 YFE      -0.0201
      6 CAX        19.3982   18.7633   46.2332 C.ar        1 YFE       0.0155
      7 CAW        20.0229   17.6554   45.6064 C.ar        1 YFE       0.0822
      8 CAM        21.2334   17.1525   46.1175 C.ar        1 YFE      -0.0446
      9 OAQ        19.4379   17.0097   44.5432 O.3         1 YFE      -0.3273
     10 CAA        19.8827   17.4759   43.2526 C.3         1 YFE       0.0581
     11 CAU        20.0920   19.4342   47.2728 C.ar        1 YFE       0.0914
     12 OAF        19.5238   20.5282   47.8501 O.3         1 YFE      -0.3377
     13 CAY        21.3340   18.9528   47.7602 C.ar        1 YFE       0.0231
     14 CAS        21.9772   19.6627   48.8016 C.2         1 YFE       0.0456
     15 OAE        22.2339   19.0915   49.9995 O.co2       1 YFE      -0.5694
     16 OAD        22.2860   20.9684   48.6487 O.co2       1 YFE      -0.5694
     17 CAV        21.9007   17.7708   47.2031 C.ar        1 YFE      -0.0494
     18 CAP        23.1995   17.1881   47.6792 C.3         1 YFE      -0.0147
     19 CAO        24.4618   18.0247   47.2895 C.3         1 YFE      -0.0100
     20 CAT        25.5414   17.4738   46.4140 C.ar        1 YFE      -0.0411
     21 CAK        25.6293   16.1412   45.9320 C.ar        1 YFE      -0.0602
     22 CAI        26.6762   15.7427   45.0826 C.ar        1 YFE      -0.0686
     23 CAH        27.6572   16.6664   44.6936 C.ar        1 YFE      -0.0687
     24 CAJ        27.6082   17.9848   45.1772 C.ar        1 YFE      -0.0686
     25 CAL        26.5664   18.3775   46.0341 C.ar        1 YFE      -0.0602
     26 H1         16.7095   17.6266   49.3623 H           1 YFE       0.0377
     27 H2         17.1988   19.1445   48.6209 H           1 YFE       0.0377
     28 H3         18.2548   17.7146   48.5369 H           1 YFE       0.0377
     29 H4         15.1126   16.4475   46.3033 H           1 YFE       0.0377
     30 H5         14.7132   17.0792   47.9013 H           1 YFE       0.0377
     31 H6         15.8888   15.7615   47.7289 H           1 YFE       0.0377
     32 H7         16.5501   17.8489   45.2186 H           1 YFE       0.0254
     33 H8         17.7025   20.1077   46.3166 H           1 YFE       0.0443
     34 H9         18.0650   19.4521   44.7502 H           1 YFE       0.0443
     35 H10        21.6418   16.3264   45.6734 H           1 YFE       0.0383
     36 H11        19.3711   16.8975   42.4821 H           1 YFE       0.0576
     37 H12        20.9575   17.3311   43.1226 H           1 YFE       0.0576
     38 H13        19.6407   18.5298   43.0959 H           1 YFE       0.0576
     39 H14        20.1409   21.2645   47.6613 H           1 YFE       0.2469
     40 H15        23.2882   16.1649   47.3373 H           1 YFE       0.0441
     41 H16        23.1558   17.0904   48.7649 H           1 YFE       0.0441
     42 H17        24.9499   18.3318   48.2198 H           1 YFE       0.0448
     43 H18        24.1137   18.9432   46.8073 H           1 YFE       0.0448
     44 H19        24.9494   15.4285   46.1777 H           1 YFE       0.0557
     45 H20        26.7208   14.7785   44.7452 H           1 YFE       0.0599
     46 H21        28.4073   16.3772   44.0637 H           1 YFE       0.0559
     47 H22        28.3223   18.6629   44.9030 H           1 YFE       0.0599
     48 H23        26.5511   19.3473   46.3638 H           1 YFE       0.0557
@<TRIPOS>BOND
     1     1     2   1
     2     2     3   1
     3     2     4   2
     4     4     5   1
     5     5     6   1
     6     6     7  ar
     7     6    11  ar
     8     7     8  ar
     9     7     9   1
    10     8    17  ar
    11     9    10   1
    12    11    12   1
    13    11    13  ar
    14    13    14   1
    15    13    17  ar
    16    14    15  ar
    17    14    16  ar
    18    17    18   1
    19    18    19   1
    20    19    20   1
    21    20    21  ar
    22    20    25  ar
    23    21    22  ar
    24    22    23  ar
    25    23    24  ar
    26    24    25  ar
    27     1    26   1
    28     1    27   1
    29     1    28   1
    30     3    29   1
    31     3    30   1
    32     3    31   1
    33     4    32   1
    34     5    33   1
    35     5    34   1
    36     8    35   1
    37    10    36   1
    38    10    37   1
    39    10    38   1
    40    12    39   1
    41    18    40   1
    42    18    41   1
    43    19    42   1
    44    19    43   1
    45    21    44   1
    46    22    45   1
    47    23    46   1
    48    24    47   1
    49    25    48   1
@<TRIPOS>SUBSTRUCTURE
     1  YFE      1

