@<TRIPOS>MOLECULE
2yge_ligand_060
    80    81
SMALL
GAST_HUCK
****
This file was generated by PARSER (from files_GN.cpp)

@<TRIPOS>ATOM
      1 C1         24.8532  -35.1991   -5.0946 C.2         1 GMY       0.0496
      2 C2         23.9286  -34.6194   -5.9689 C.2         1 GMY       0.1905
      3 C3         22.9132  -35.3661   -6.5359 C.2         1 GMY       0.1367
      4 C4         22.9094  -36.6991   -6.3653 C.2         1 GMY       0.0078
      5 C5         23.7691  -37.3077   -5.4732 C.2         1 GMY       0.1522
      6 C6         24.7850  -36.5628   -4.8748 C.2         1 GMY       0.1484
      7 C7         25.7901  -34.3217   -4.3705 C.3         1 GMY      -0.0163
      8 C8         25.1373  -33.6624   -3.0973 C.3         1 GMY      -0.0344
      9 C9         25.8043  -34.1248   -1.7612 C.3         1 GMY      -0.0200
     10 C10        24.9319  -33.9087   -0.4793 C.3         1 GMY       0.0859
     11 C11        24.6167  -35.2013    0.3590 C.3         1 GMY       0.0868
     12 C12        23.5112  -36.0934   -0.2724 C.3         1 GMY      -0.0094
     13 C13        22.2166  -35.4014   -0.2950 C.2         1 GMY      -0.1006
     14 C14        21.2527  -35.4585   -1.2289 C.2         1 GMY      -0.0457
     15 C15        19.9973  -34.6975   -1.0359 C.3         1 GMY       0.1504
     16 C16        19.7327  -33.6480   -2.1666 C.3         1 GMY       0.1288
     17 C17        20.8981  -32.8163   -2.4501 C.2         1 GMY      -0.0424
     18 C18        21.4912  -32.6421   -3.6643 C.2         1 GMY      -0.0729
     19 C19        21.1956  -33.3152   -4.7906 C.2         1 GMY      -0.0656
     20 C20        21.3229  -32.8530   -6.0743 C.2         1 GMY       0.0245
     21 C21        21.2033  -33.7452   -7.0994 C.2         1 GMY       0.2316
     22 N22        21.8961  -34.8721   -7.2591 N.am        1 GMY      -0.2158
     23 O23        24.2004  -33.5623   -6.5134 O.2         1 GMY      -0.3575
     24 O24        23.4152  -38.3802   -5.1031 O.2         1 GMY      -0.3865
     25 O25        25.8425  -37.1656   -4.2977 O.3         1 GMY      -0.3151
     26 C26        25.7416  -38.1672   -3.2837 C.3         1 GMY       0.0602
     27 C27        25.1204  -32.1070   -3.1815 C.3         1 GMY      -0.0609
     28 O28        25.4512  -32.8158    0.3115 O.3         1 GMY      -0.3771
     29 C29        26.5519  -33.0488    1.1883 C.3         1 GMY       0.0369
     30 O30        25.7838  -35.9805    0.6289 O.3         1 GMY      -0.3877
     31 C31        23.3637  -37.4270    0.4992 C.3         1 GMY      -0.0567
     32 C32        21.3848  -36.3111   -2.4176 C.3         1 GMY      -0.0373
     33 O33        19.0029  -35.7117   -0.8178 O.3         1 GMY      -0.2436
     34 C34        17.8537  -36.1118   -1.4157 C.2         1 GMY       0.3194
     35 O35        17.3019  -35.5136   -2.5023 O.2         1 GMY      -0.3776
     36 N36        17.2649  -37.2184   -0.9724 N.am        1 GMY      -0.2762
     37 O37        18.5249  -32.8709   -1.9679 O.3         1 GMY      -0.3598
     38 C38        18.3831  -31.8139   -1.0088 C.3         1 GMY       0.0406
     39 C39        21.6043  -31.4611   -6.4096 C.3         1 GMY      -0.0273
     40 O40        20.2601  -33.5971   -7.8713 O.2         1 GMY      -0.3753
     41 H1         22.2069  -37.2543   -6.8027 H           1 GMY       0.0327
     42 H2         26.1730  -33.5425   -5.0441 H           1 GMY       0.0392
     43 H3         26.6974  -34.8570   -4.0807 H           1 GMY       0.0392
     44 H4         24.0906  -33.9835   -3.0497 H           1 GMY       0.0317
     45 H5         26.7564  -33.5982   -1.6604 H           1 GMY       0.0295
     46 H6         26.0567  -35.1825   -1.8458 H           1 GMY       0.0295
     47 H7         23.9694  -33.4984   -0.7983 H           1 GMY       0.0623
     48 H8         24.2250  -34.8748    1.3331 H           1 GMY       0.0637
     49 H9         23.8437  -36.3028   -1.2759 H           1 GMY       0.0398
     50 H10        22.0164  -34.8673    0.5203 H           1 GMY       0.0247
     51 H11        20.0228  -34.1307   -0.1051 H           1 GMY       0.0853
     52 H12        19.4822  -34.2299   -3.0505 H           1 GMY       0.0852
     53 H13        21.3073  -32.3522   -1.6788 H           1 GMY       0.0741
     54 H14        22.2730  -32.0363   -3.6752 H           1 GMY       0.0436
     55 H15        20.9784  -34.2760   -4.6901 H           1 GMY       0.0539
     56 H16        21.5368  -35.4763   -7.9320 H           1 GMY       0.2392
     57 H17        26.7211  -38.3151   -2.8365 H           1 GMY       0.0581
     58 H18        25.4338  -39.1095   -3.6731 H           1 GMY       0.0581
     59 H19        25.0510  -37.8927   -2.5177 H           1 GMY       0.0581
     60 H20        24.6566  -31.7838   -4.1145 H           1 GMY       0.0234
     61 H21        26.1361  -31.7094   -3.1454 H           1 GMY       0.0234
     62 H22        24.5512  -31.6776   -2.3546 H           1 GMY       0.0234
     63 H23        27.0000  -32.0782    1.3908 H           1 GMY       0.0524
     64 H24        27.3103  -33.7025    0.7632 H           1 GMY       0.0524
     65 H25        26.1907  -33.4601    2.1275 H           1 GMY       0.0524
     66 H26        25.9980  -36.4690   -0.1762 H           1 GMY       0.2101
     67 H27        22.7142  -38.0982   -0.0671 H           1 GMY       0.0247
     68 H28        22.9524  -37.2721    1.4991 H           1 GMY       0.0247
     69 H29        24.3220  -37.9337    0.6110 H           1 GMY       0.0247
     70 H30        21.5709  -37.3425   -2.1229 H           1 GMY       0.0376
     71 H31        22.2036  -35.9551   -3.0408 H           1 GMY       0.0376
     72 H32        20.4818  -36.3116   -3.0215 H           1 GMY       0.0376
     73 H33        16.4884  -37.5566   -1.4456 H           1 GMY       0.1831
     74 H34        17.6247  -37.7064   -0.2148 H           1 GMY       0.1831
     75 H35        17.3352  -31.7756   -0.7373 H           1 GMY       0.0527
     76 H36        18.6376  -30.8555   -1.4529 H           1 GMY       0.0527
     77 H37        18.9674  -31.9637   -0.1037 H           1 GMY       0.0527
     78 H38        21.4547  -30.7833   -5.5730 H           1 GMY       0.0384
     79 H39        20.9511  -31.1236   -7.2194 H           1 GMY       0.0384
     80 H40        22.6382  -31.3644   -6.7424 H           1 GMY       0.0384
@<TRIPOS>BOND
     1     1     2   1
     2     1     6   2
     3     1     7   1
     4     2     3   1
     5     2    23   2
     6     3     4   2
     7     3    22   1
     8     4     5   1
     9     5     6   1
    10     5    24   2
    11     6    25   1
    12     7     8   1
    13     8     9   1
    14     8    27   1
    15     9    10   1
    16    10    11   1
    17    10    28   1
    18    11    12   1
    19    11    30   1
    20    12    13   1
    21    12    31   1
    22    13    14   2
    23    14    15   1
    24    14    32   1
    25    15    16   1
    26    15    33   1
    27    16    17   1
    28    16    37   1
    29    17    18   2
    30    18    19   1
    31    19    20   2
    32    20    21   1
    33    20    39   1
    34    21    22  am
    35    21    40   2
    36    25    26   1
    37    28    29   1
    38    33    34   1
    39    34    35   2
    40    34    36  am
    41    37    38   1
    42     4    41   1
    43     7    42   1
    44     7    43   1
    45     8    44   1
    46     9    45   1
    47     9    46   1
    48    10    47   1
    49    11    48   1
    50    12    49   1
    51    13    50   1
    52    15    51   1
    53    16    52   1
    54    17    53   1
    55    18    54   1
    56    19    55   1
    57    22    56   1
    58    26    57   1
    59    26    58   1
    60    26    59   1
    61    27    60   1
    62    27    61   1
    63    27    62   1
    64    29    63   1
    65    29    64   1
    66    29    65   1
    67    30    66   1
    68    31    67   1
    69    31    68   1
    70    31    69   1
    71    32    70   1
    72    32    71   1
    73    32    72   1
    74    36    73   1
    75    36    74   1
    76    38    75   1
    77    38    76   1
    78    38    77   1
    79    39    78   1
    80    39    79   1
    81    39    80   1
@<TRIPOS>SUBSTRUCTURE
     1  GMY      1

