@<TRIPOS>MOLECULE
2yge_ligand_016
    80    81
SMALL
GAST_HUCK
****
This file was generated by PARSER (from files_GN.cpp)

@<TRIPOS>ATOM
      1 C1         26.0672  -34.4840   -2.8334 C.2         1 GMY       0.0496
      2 C2         25.2954  -35.6430   -2.8185 C.2         1 GMY       0.1905
      3 C3         24.2951  -35.8156   -1.8805 C.2         1 GMY       0.1367
      4 C4         24.2580  -34.9781   -0.8198 C.2         1 GMY       0.0078
      5 C5         25.1129  -33.9137   -0.7336 C.2         1 GMY       0.1522
      6 C6         25.9495  -33.6176   -1.7847 C.2         1 GMY       0.1484
      7 C7         26.9839  -34.2358   -3.9628 C.3         1 GMY      -0.0163
      8 C8         26.2564  -33.8982   -5.3231 C.3         1 GMY      -0.0344
      9 C9         26.7251  -32.5204   -5.9082 C.3         1 GMY      -0.0200
     10 C10        25.9163  -31.9507   -7.1355 C.3         1 GMY       0.0859
     11 C11        25.2996  -30.5321   -6.9010 C.3         1 GMY       0.0868
     12 C12        24.1584  -30.4040   -5.8338 C.3         1 GMY      -0.0094
     13 C13        22.9219  -31.1230   -6.1832 C.2         1 GMY      -0.1006
     14 C14        22.1143  -31.8486   -5.3731 C.2         1 GMY      -0.0457
     15 C15        20.8007  -32.3345   -5.8668 C.3         1 GMY       0.1504
     16 C16        20.6951  -33.9003   -5.9443 C.3         1 GMY       0.1288
     17 C17        21.8914  -34.5266   -6.5207 C.2         1 GMY      -0.0424
     18 C18        22.7145  -35.4164   -5.9427 C.2         1 GMY      -0.0729
     19 C19        22.6314  -35.8780   -4.6686 C.2         1 GMY      -0.0656
     20 C20        22.8842  -37.1442   -4.2588 C.2         1 GMY       0.0245
     21 C21        22.7957  -37.4344   -2.9209 C.2         1 GMY       0.2316
     22 N22        23.3781  -36.7990   -1.9057 N.am        1 GMY      -0.2158
     23 O23        25.7177  -36.6514   -3.3736 O.2         1 GMY      -0.3575
     24 O24        25.1009  -33.2189    0.2715 O.2         1 GMY      -0.3865
     25 O25        26.7430  -32.5302   -1.6907 O.3         1 GMY      -0.3151
     26 C26        26.1138  -31.2676   -1.9827 C.3         1 GMY       0.0602
     27 C27        26.4310  -35.0548   -6.3513 C.3         1 GMY      -0.0609
     28 O28        26.7569  -31.7710   -8.3053 O.3         1 GMY      -0.3771
     29 C29        27.3836  -32.9149   -8.9077 C.3         1 GMY       0.0369
     30 O30        26.3730  -29.6416   -6.5727 O.3         1 GMY      -0.3877
     31 C31        23.7941  -28.9080   -5.5997 C.3         1 GMY      -0.0567
     32 C32        22.4994  -32.1597   -3.9931 C.3         1 GMY      -0.0373
     33 O33        19.8083  -31.7584   -4.9902 O.3         1 GMY      -0.2436
     34 C34        18.4580  -31.8905   -4.9631 C.2         1 GMY       0.3194
     35 O35        17.7861  -32.6405   -5.8671 O.2         1 GMY      -0.3776
     36 N36        17.7542  -31.2258   -4.0392 N.am        1 GMY      -0.2762
     37 O37        19.4679  -34.3368   -6.5805 O.3         1 GMY      -0.3598
     38 C38        19.3845  -34.4591   -8.0138 C.3         1 GMY       0.0406
     39 C39        23.1942  -38.2523   -5.1629 C.3         1 GMY      -0.0273
     40 O40        21.9821  -38.2790   -2.5790 O.2         1 GMY      -0.3753
     41 H1         23.5663  -35.1019   -0.1080 H           1 GMY       0.0327
     42 H2         27.6272  -35.1122   -4.0815 H           1 GMY       0.0392
     43 H3         27.6872  -33.4379   -3.7200 H           1 GMY       0.0392
     44 H4         25.1817  -33.8046   -5.1410 H           1 GMY       0.0317
     45 H5         27.7812  -32.6059   -6.1757 H           1 GMY       0.0295
     46 H6         26.6887  -31.7914   -5.0962 H           1 GMY       0.0295
     47 H7         25.0924  -32.6233   -7.3909 H           1 GMY       0.0623
     48 H8         24.8953  -30.1819   -7.8557 H           1 GMY       0.0637
     49 H9         24.5566  -30.7815   -4.8980 H           1 GMY       0.0398
     50 H10        22.5846  -30.9353   -7.0962 H           1 GMY       0.0247
     51 H11        20.5910  -31.9310   -6.8614 H           1 GMY       0.0853
     52 H12        20.5600  -34.2389   -4.9193 H           1 GMY       0.0852
     53 H13        22.1156  -34.2439   -7.4522 H           1 GMY       0.0741
     54 H14        23.4831  -35.7137   -6.4912 H           1 GMY       0.0436
     55 H15        22.4045  -35.2017   -3.9767 H           1 GMY       0.0539
     56 H16        23.0371  -37.0493   -1.0335 H           1 GMY       0.2392
     57 H17        26.8887  -30.4947   -1.9796 H           1 GMY       0.0581
     58 H18        25.3670  -31.0034   -1.2286 H           1 GMY       0.0581
     59 H19        25.6371  -31.2771   -2.9612 H           1 GMY       0.0581
     60 H20        26.1095  -36.0038   -5.9195 H           1 GMY       0.0234
     61 H21        27.4784  -35.1479   -6.6457 H           1 GMY       0.0234
     62 H22        25.8279  -34.8818   -7.2436 H           1 GMY       0.0234
     63 H23        27.8479  -32.5893   -9.8426 H           1 GMY       0.0524
     64 H24        26.6573  -33.7001   -9.1393 H           1 GMY       0.0524
     65 H25        28.1680  -33.3147   -8.2597 H           1 GMY       0.0524
     66 H26        26.9268  -29.5890   -7.3805 H           1 GMY       0.2101
     67 H27        22.9811  -28.8088   -4.8812 H           1 GMY       0.0247
     68 H28        23.4874  -28.4284   -6.5342 H           1 GMY       0.0247
     69 H29        24.6515  -28.3625   -5.1978 H           1 GMY       0.0247
     70 H30        22.7078  -31.2436   -3.4431 H           1 GMY       0.0376
     71 H31        23.3937  -32.7846   -3.9775 H           1 GMY       0.0376
     72 H32        21.7157  -32.6901   -3.4477 H           1 GMY       0.0376
     73 H33        16.7824  -31.2776   -4.0308 H           1 GMY       0.1831
     74 H34        18.2143  -30.6749   -3.3821 H           1 GMY       0.1831
     75 H35        18.3372  -34.6349   -8.2741 H           1 GMY       0.0527
     76 H36        19.9692  -35.3141   -8.3697 H           1 GMY       0.0527
     77 H37        19.7285  -33.5534   -8.5190 H           1 GMY       0.0527
     78 H38        23.1673  -37.9876   -6.2194 H           1 GMY       0.0384
     79 H39        22.4766  -39.0648   -5.0282 H           1 GMY       0.0384
     80 H40        24.1950  -38.6240   -4.9400 H           1 GMY       0.0384
@<TRIPOS>BOND
     1     1     2   1
     2     1     6   2
     3     1     7   1
     4     2     3   1
     5     2    23   2
     6     3     4   2
     7     3    22   1
     8     4     5   1
     9     5     6   1
    10     5    24   2
    11     6    25   1
    12     7     8   1
    13     8     9   1
    14     8    27   1
    15     9    10   1
    16    10    11   1
    17    10    28   1
    18    11    12   1
    19    11    30   1
    20    12    13   1
    21    12    31   1
    22    13    14   2
    23    14    15   1
    24    14    32   1
    25    15    16   1
    26    15    33   1
    27    16    17   1
    28    16    37   1
    29    17    18   2
    30    18    19   1
    31    19    20   2
    32    20    21   1
    33    20    39   1
    34    21    22  am
    35    21    40   2
    36    25    26   1
    37    28    29   1
    38    33    34   1
    39    34    35   2
    40    34    36  am
    41    37    38   1
    42     4    41   1
    43     7    42   1
    44     7    43   1
    45     8    44   1
    46     9    45   1
    47     9    46   1
    48    10    47   1
    49    11    48   1
    50    12    49   1
    51    13    50   1
    52    15    51   1
    53    16    52   1
    54    17    53   1
    55    18    54   1
    56    19    55   1
    57    22    56   1
    58    26    57   1
    59    26    58   1
    60    26    59   1
    61    27    60   1
    62    27    61   1
    63    27    62   1
    64    29    63   1
    65    29    64   1
    66    29    65   1
    67    30    66   1
    68    31    67   1
    69    31    68   1
    70    31    69   1
    71    32    70   1
    72    32    71   1
    73    32    72   1
    74    36    73   1
    75    36    74   1
    76    38    75   1
    77    38    76   1
    78    38    77   1
    79    39    78   1
    80    39    79   1
    81    39    80   1
@<TRIPOS>SUBSTRUCTURE
     1  GMY      1

