@<TRIPOS>MOLECULE
2yge_ligand_031
    80    81
SMALL
GAST_HUCK
****
This file was generated by PARSER (from files_GN.cpp)

@<TRIPOS>ATOM
      1 C1         25.2373  -31.2513   -4.3632 C.2         1 GMY       0.0496
      2 C2         25.2612  -30.0480   -5.0720 C.2         1 GMY       0.1905
      3 C3         26.0056  -28.9703   -4.6225 C.2         1 GMY       0.1367
      4 C4         26.5677  -29.0374   -3.3907 C.2         1 GMY       0.0078
      5 C5         26.5287  -30.1936   -2.6708 C.2         1 GMY       0.1522
      6 C6         25.9139  -31.3184   -3.1773 C.2         1 GMY       0.1484
      7 C7         24.6161  -32.4470   -4.9592 C.3         1 GMY      -0.0163
      8 C8         25.5511  -33.1634   -6.0019 C.3         1 GMY      -0.0344
      9 C9         26.0719  -34.5328   -5.4555 C.3         1 GMY      -0.0200
     10 C10        27.2004  -35.2156   -6.2999 C.3         1 GMY       0.0859
     11 C11        28.4446  -35.6760   -5.4651 C.3         1 GMY       0.0868
     12 C12        29.3764  -34.5057   -4.9880 C.3         1 GMY      -0.0094
     13 C13        29.9476  -33.7654   -6.1159 C.2         1 GMY      -0.1006
     14 C14        30.1564  -32.4290   -6.2202 C.2         1 GMY      -0.0457
     15 C15        30.8911  -31.8978   -7.3891 C.3         1 GMY       0.1504
     16 C16        30.1407  -30.7889   -8.2059 C.3         1 GMY       0.1288
     17 C17        28.7921  -31.1806   -8.6246 C.2         1 GMY      -0.0424
     18 C18        27.6238  -30.5838   -8.3199 C.2         1 GMY      -0.0729
     19 C19        27.4455  -29.5230   -7.4870 C.2         1 GMY      -0.0656
     20 C20        26.5229  -28.5385   -7.6085 C.2         1 GMY       0.0245
     21 C21        26.4013  -27.6102   -6.6071 C.2         1 GMY       0.2316
     22 N22        26.2183  -27.8327   -5.3060 N.am        1 GMY      -0.2158
     23 O23        24.4248  -29.8419   -5.9472 O.2         1 GMY      -0.3575
     24 O24        27.1735  -30.2523   -1.6308 O.2         1 GMY      -0.3865
     25 O25        26.1201  -32.5063   -2.5702 O.3         1 GMY      -0.3151
     26 C26        25.6274  -32.5954   -1.2208 C.3         1 GMY       0.0602
     27 C27        24.8550  -33.3109   -7.3841 C.3         1 GMY      -0.0609
     28 O28        26.6445  -36.2079   -7.1938 O.3         1 GMY      -0.3771
     29 C29        26.3869  -37.5543   -6.7436 C.3         1 GMY       0.0369
     30 O30        28.0211  -36.4302   -4.3218 O.3         1 GMY      -0.3877
     31 C31        30.5508  -35.0160   -4.0988 C.3         1 GMY      -0.0567
     32 C32        29.7792  -31.5137   -5.1382 C.3         1 GMY      -0.0373
     33 O33        32.1602  -31.3596   -6.9726 O.3         1 GMY      -0.2436
     34 C34        33.2336  -32.0133   -6.4559 C.2         1 GMY       0.3194
     35 O35        33.2424  -33.3559   -6.2708 O.2         1 GMY      -0.3776
     36 N36        34.3316  -31.3187   -6.1334 N.am        1 GMY      -0.2762
     37 O37        30.9021  -30.2749   -9.3268 O.3         1 GMY      -0.3598
     38 C38        31.4018  -31.1333  -10.3665 C.3         1 GMY       0.0406
     39 C39        25.6500  -28.3495   -8.7747 C.3         1 GMY      -0.0273
     40 O40        26.5938  -26.4347   -6.8907 O.2         1 GMY      -0.3753
     41 H1         27.0818  -28.2610   -3.0324 H           1 GMY       0.0327
     42 H2         23.6636  -32.1506   -5.4133 H           1 GMY       0.0392
     43 H3         24.3119  -33.1493   -4.1849 H           1 GMY       0.0392
     44 H4         26.4317  -32.5405   -6.1763 H           1 GMY       0.0317
     45 H5         25.2225  -35.2107   -5.3433 H           1 GMY       0.0295
     46 H6         26.4433  -34.3521   -4.4401 H           1 GMY       0.0295
     47 H7         27.5721  -34.4677   -6.9979 H           1 GMY       0.0623
     48 H8         29.0454  -36.3476   -6.0921 H           1 GMY       0.0637
     49 H9         28.7715  -33.8467   -4.3610 H           1 GMY       0.0398
     50 H10        30.2914  -34.3400   -6.8524 H           1 GMY       0.0247
     51 H11        31.1245  -32.6993   -8.0974 H           1 GMY       0.0853
     52 H12        30.0825  -29.9199   -7.5550 H           1 GMY       0.0852
     53 H13        28.7372  -31.9775   -9.2160 H           1 GMY       0.0741
     54 H14        26.8026  -31.0002   -8.6964 H           1 GMY       0.0436
     55 H15        28.0081  -29.5234   -6.6669 H           1 GMY       0.0539
     56 H16        26.3464  -27.0495   -4.7494 H           1 GMY       0.2392
     57 H17        25.7495  -33.6251   -0.8812 H           1 GMY       0.0581
     58 H18        24.5687  -32.3330   -1.1621 H           1 GMY       0.0581
     59 H19        26.1983  -31.9464   -0.5535 H           1 GMY       0.0581
     60 H20        24.5408  -32.3299   -7.7384 H           1 GMY       0.0234
     61 H21        23.9778  -33.9566   -7.3158 H           1 GMY       0.0234
     62 H22        25.5365  -33.7284   -8.1243 H           1 GMY       0.0234
     63 H23        25.7986  -38.0491   -7.5045 H           1 GMY       0.0524
     64 H24        25.8355  -37.5736   -5.8047 H           1 GMY       0.0524
     65 H25        27.3321  -38.0980   -6.6377 H           1 GMY       0.0524
     66 H26        28.0304  -37.3733   -4.5960 H           1 GMY       0.2101
     67 H27        31.1805  -34.1778   -3.7731 H           1 GMY       0.0247
     68 H28        31.1785  -35.7288   -4.6432 H           1 GMY       0.0247
     69 H29        30.1693  -35.5066   -3.2022 H           1 GMY       0.0247
     70 H30        30.2269  -31.8314   -4.1936 H           1 GMY       0.0376
     71 H31        28.6918  -31.4951   -5.0301 H           1 GMY       0.0376
     72 H32        30.1160  -30.4926   -5.3190 H           1 GMY       0.0376
     73 H33        35.1060  -31.7721   -5.7608 H           1 GMY       0.1831
     74 H34        34.3599  -30.3568   -6.2735 H           1 GMY       0.1831
     75 H35        31.8440  -30.5033  -11.1385 H           1 GMY       0.0527
     76 H36        30.6065  -31.7211  -10.8277 H           1 GMY       0.0527
     77 H37        32.1786  -31.7986   -9.9916 H           1 GMY       0.0527
     78 H38        25.7973  -29.0921   -9.5586 H           1 GMY       0.0384
     79 H39        25.8267  -27.3692   -9.2297 H           1 GMY       0.0384
     80 H40        24.6032  -28.3955   -8.4604 H           1 GMY       0.0384
@<TRIPOS>BOND
     1     1     2   1
     2     1     6   2
     3     1     7   1
     4     2     3   1
     5     2    23   2
     6     3     4   2
     7     3    22   1
     8     4     5   1
     9     5     6   1
    10     5    24   2
    11     6    25   1
    12     7     8   1
    13     8     9   1
    14     8    27   1
    15     9    10   1
    16    10    11   1
    17    10    28   1
    18    11    12   1
    19    11    30   1
    20    12    13   1
    21    12    31   1
    22    13    14   2
    23    14    15   1
    24    14    32   1
    25    15    16   1
    26    15    33   1
    27    16    17   1
    28    16    37   1
    29    17    18   2
    30    18    19   1
    31    19    20   2
    32    20    21   1
    33    20    39   1
    34    21    22  am
    35    21    40   2
    36    25    26   1
    37    28    29   1
    38    33    34   1
    39    34    35   2
    40    34    36  am
    41    37    38   1
    42     4    41   1
    43     7    42   1
    44     7    43   1
    45     8    44   1
    46     9    45   1
    47     9    46   1
    48    10    47   1
    49    11    48   1
    50    12    49   1
    51    13    50   1
    52    15    51   1
    53    16    52   1
    54    17    53   1
    55    18    54   1
    56    19    55   1
    57    22    56   1
    58    26    57   1
    59    26    58   1
    60    26    59   1
    61    27    60   1
    62    27    61   1
    63    27    62   1
    64    29    63   1
    65    29    64   1
    66    29    65   1
    67    30    66   1
    68    31    67   1
    69    31    68   1
    70    31    69   1
    71    32    70   1
    72    32    71   1
    73    32    72   1
    74    36    73   1
    75    36    74   1
    76    38    75   1
    77    38    76   1
    78    38    77   1
    79    39    78   1
    80    39    79   1
    81    39    80   1
@<TRIPOS>SUBSTRUCTURE
     1  GMY      1

