@<TRIPOS>MOLECULE
2yge_ligand_046
    80    81
SMALL
GAST_HUCK
****
This file was generated by PARSER (from files_GN.cpp)

@<TRIPOS>ATOM
      1 C1         23.0785  -33.4299   -3.9175 C.2         1 GMY       0.0496
      2 C2         23.4587  -33.8407   -5.1930 C.2         1 GMY       0.1905
      3 C3         22.7145  -33.4881   -6.3040 C.2         1 GMY       0.1367
      4 C4         21.5014  -32.9233   -6.1112 C.2         1 GMY       0.0078
      5 C5         21.0569  -32.6166   -4.8544 C.2         1 GMY       0.1522
      6 C6         21.8454  -32.8769   -3.7553 C.2         1 GMY       0.1484
      7 C7         24.0231  -33.5883   -2.7959 C.3         1 GMY      -0.0163
      8 C8         25.2300  -32.5845   -2.8522 C.3         1 GMY      -0.0344
      9 C9         24.8175  -31.1743   -2.2960 C.3         1 GMY      -0.0200
     10 C10        25.8475  -30.0080   -2.4438 C.3         1 GMY       0.0859
     11 C11        25.2725  -28.5897   -2.0739 C.3         1 GMY       0.0868
     12 C12        24.4767  -27.8857   -3.2217 C.3         1 GMY      -0.0094
     13 C13        25.3042  -27.7321   -4.4257 C.2         1 GMY      -0.1006
     14 C14        25.0815  -28.2192   -5.6701 C.2         1 GMY      -0.0457
     15 C15        26.0649  -27.9671   -6.7438 C.3         1 GMY       0.1504
     16 C16        26.5824  -29.2312   -7.5117 C.3         1 GMY       0.1288
     17 C17        27.0714  -30.2692   -6.5985 C.2         1 GMY      -0.0424
     18 C18        26.6372  -31.5406   -6.4939 C.2         1 GMY      -0.0729
     19 C19        25.5730  -32.0821   -7.1458 C.2         1 GMY      -0.0656
     20 C20        25.4603  -33.3467   -7.6184 C.2         1 GMY       0.0245
     21 C21        24.2711  -33.7386   -8.1700 C.2         1 GMY       0.2316
     22 N22        23.0747  -33.7329   -7.5816 N.am        1 GMY      -0.2158
     23 O23        24.2519  -34.7684   -5.3046 O.2         1 GMY      -0.3575
     24 O24        19.9784  -32.0476   -4.7317 O.2         1 GMY      -0.3865
     25 O25        21.4290  -32.4434   -2.5514 O.3         1 GMY      -0.3151
     26 C26        20.7622  -33.4400   -1.7536 C.3         1 GMY       0.0602
     27 C27        26.4580  -33.1800   -2.1132 C.3         1 GMY      -0.0609
     28 O28        26.9726  -30.2504   -1.5705 O.3         1 GMY      -0.3771
     29 C29        28.0981  -29.3601   -1.7491 C.3         1 GMY       0.0369
     30 O30        24.5207  -28.6923   -0.8517 O.3         1 GMY      -0.3877
     31 C31        23.9471  -26.5010   -2.7630 C.3         1 GMY      -0.0567
     32 C32        23.8395  -28.9222   -5.9918 C.3         1 GMY      -0.0373
     33 O33        25.4763  -26.9325   -7.5552 O.3         1 GMY      -0.2436
     34 C34        25.3300  -26.6685   -8.8805 C.2         1 GMY       0.3194
     35 O35        25.8296  -27.4515   -9.8663 O.2         1 GMY      -0.3776
     36 N36        24.6854  -25.5465   -9.2282 N.am        1 GMY      -0.2762
     37 O37        27.6728  -28.8127   -8.3622 O.3         1 GMY      -0.3598
     38 C38        27.9410  -29.6066   -9.5355 C.3         1 GMY       0.0406
     39 C39        26.5454  -34.3322   -7.6383 C.3         1 GMY      -0.0273
     40 O40        24.2560  -33.9697   -9.3719 O.2         1 GMY      -0.3753
     41 H1         20.9352  -32.6831   -6.8980 H           1 GMY       0.0327
     42 H2         24.3859  -34.6191   -2.8079 H           1 GMY       0.0392
     43 H3         23.5399  -33.4831   -1.8241 H           1 GMY       0.0392
     44 H4         25.5314  -32.4577   -3.8934 H           1 GMY       0.0317
     45 H5         24.5489  -31.2796   -1.2385 H           1 GMY       0.0295
     46 H6         23.9151  -30.8735   -2.8292 H           1 GMY       0.0295
     47 H7         26.1836  -30.0226   -3.4854 H           1 GMY       0.0623
     48 H8         26.1032  -27.9162   -1.8283 H           1 GMY       0.0637
     49 H9         23.6045  -28.5015   -3.4132 H           1 GMY       0.0398
     50 H10        26.1386  -27.2083   -4.2812 H           1 GMY       0.0247
     51 H11        26.9630  -27.4981   -6.3305 H           1 GMY       0.0853
     52 H12        25.7728  -29.5985   -8.1420 H           1 GMY       0.0852
     53 H13        27.8447  -30.0165   -6.0234 H           1 GMY       0.0741
     54 H14        27.1122  -32.1226   -5.8393 H           1 GMY       0.0436
     55 H15        24.7774  -31.4884   -7.2302 H           1 GMY       0.0539
     56 H16        22.3300  -33.8500   -8.1944 H           1 GMY       0.2392
     57 H17        20.4817  -32.9819   -0.8041 H           1 GMY       0.0581
     58 H18        21.4158  -34.2901   -1.5408 H           1 GMY       0.0581
     59 H19        19.8507  -33.7981   -2.2390 H           1 GMY       0.0581
     60 H20        26.6520  -34.2057   -2.4339 H           1 GMY       0.0234
     61 H21        26.3004  -33.1737   -1.0333 H           1 GMY       0.0234
     62 H22        27.3488  -32.6019   -2.3549 H           1 GMY       0.0234
     63 H23        28.7518  -29.4840   -0.8778 H           1 GMY       0.0524
     64 H24        27.8191  -28.2975   -1.7969 H           1 GMY       0.0524
     65 H25        28.6417  -29.6132   -2.6757 H           1 GMY       0.0524
     66 H26        24.6786  -27.8352   -0.3939 H           1 GMY       0.2101
     67 H27        23.2144  -26.1377   -3.4781 H           1 GMY       0.0247
     68 H28        24.7552  -25.7692   -2.6739 H           1 GMY       0.0247
     69 H29        23.4429  -26.5717   -1.8011 H           1 GMY       0.0247
     70 H30        22.9756  -28.3041   -5.7410 H           1 GMY       0.0376
     71 H31        23.7775  -29.8606   -5.4328 H           1 GMY       0.0376
     72 H32        23.7585  -29.1601   -7.0507 H           1 GMY       0.0376
     73 H33        24.5609  -25.3185  -10.1629 H           1 GMY       0.1831
     74 H34        24.3448  -24.9530   -8.5392 H           1 GMY       0.1831
     75 H35        28.7861  -29.1615  -10.0609 H           1 GMY       0.0527
     76 H36        27.0805  -29.6139  -10.2073 H           1 GMY       0.0527
     77 H37        28.2034  -30.6327   -9.2701 H           1 GMY       0.0527
     78 H38        27.4778  -33.9658   -7.2109 H           1 GMY       0.0384
     79 H39        26.7606  -34.6307   -8.6666 H           1 GMY       0.0384
     80 H40        26.2520  -35.2221   -7.0780 H           1 GMY       0.0384
@<TRIPOS>BOND
     1     1     2   1
     2     1     6   2
     3     1     7   1
     4     2     3   1
     5     2    23   2
     6     3     4   2
     7     3    22   1
     8     4     5   1
     9     5     6   1
    10     5    24   2
    11     6    25   1
    12     7     8   1
    13     8     9   1
    14     8    27   1
    15     9    10   1
    16    10    11   1
    17    10    28   1
    18    11    12   1
    19    11    30   1
    20    12    13   1
    21    12    31   1
    22    13    14   2
    23    14    15   1
    24    14    32   1
    25    15    16   1
    26    15    33   1
    27    16    17   1
    28    16    37   1
    29    17    18   2
    30    18    19   1
    31    19    20   2
    32    20    21   1
    33    20    39   1
    34    21    22  am
    35    21    40   2
    36    25    26   1
    37    28    29   1
    38    33    34   1
    39    34    35   2
    40    34    36  am
    41    37    38   1
    42     4    41   1
    43     7    42   1
    44     7    43   1
    45     8    44   1
    46     9    45   1
    47     9    46   1
    48    10    47   1
    49    11    48   1
    50    12    49   1
    51    13    50   1
    52    15    51   1
    53    16    52   1
    54    17    53   1
    55    18    54   1
    56    19    55   1
    57    22    56   1
    58    26    57   1
    59    26    58   1
    60    26    59   1
    61    27    60   1
    62    27    61   1
    63    27    62   1
    64    29    63   1
    65    29    64   1
    66    29    65   1
    67    30    66   1
    68    31    67   1
    69    31    68   1
    70    31    69   1
    71    32    70   1
    72    32    71   1
    73    32    72   1
    74    36    73   1
    75    36    74   1
    76    38    75   1
    77    38    76   1
    78    38    77   1
    79    39    78   1
    80    39    79   1
    81    39    80   1
@<TRIPOS>SUBSTRUCTURE
     1  GMY      1

