@<TRIPOS>MOLECULE
2yge_ligand_032
    80    81
SMALL
GAST_HUCK
****
This file was generated by PARSER (from files_GN.cpp)

@<TRIPOS>ATOM
      1 C1         20.8785  -35.0818   -5.1688 C.2         1 GMY       0.0496
      2 C2         21.1130  -35.0916   -6.5391 C.2         1 GMY       0.1905
      3 C3         20.8645  -33.9687   -7.3051 C.2         1 GMY       0.1367
      4 C4         20.0986  -32.9878   -6.7735 C.2         1 GMY       0.0078
      5 C5         19.6683  -33.0557   -5.4795 C.2         1 GMY       0.1522
      6 C6         20.1433  -34.0549   -4.6528 C.2         1 GMY       0.1484
      7 C7         21.4008  -36.1877   -4.3377 C.3         1 GMY      -0.0163
      8 C8         22.9734  -36.2411   -4.2211 C.3         1 GMY      -0.0344
      9 C9         23.4662  -36.4680   -2.7508 C.3         1 GMY      -0.0200
     10 C10        24.9878  -36.1624   -2.4863 C.3         1 GMY       0.0859
     11 C11        25.2471  -34.8938   -1.6026 C.3         1 GMY       0.0868
     12 C12        24.8902  -33.5269   -2.2878 C.3         1 GMY      -0.0094
     13 C13        25.7626  -33.2117   -3.4237 C.2         1 GMY      -0.1006
     14 C14        25.4596  -32.4784   -4.5230 C.2         1 GMY      -0.0457
     15 C15        26.5419  -32.0636   -5.4428 C.3         1 GMY       0.1504
     16 C16        26.4373  -32.6306   -6.8961 C.3         1 GMY       0.1288
     17 C17        26.3166  -34.0895   -6.8864 C.2         1 GMY      -0.0424
     18 C18        25.2900  -34.8404   -7.3270 C.2         1 GMY      -0.0729
     19 C19        24.1245  -34.3820   -7.8628 C.2         1 GMY      -0.0656
     20 C20        23.3527  -34.9886   -8.7951 C.2         1 GMY       0.0245
     21 C21        22.2668  -34.3115   -9.2733 C.2         1 GMY       0.2316
     22 N22        21.2451  -33.8078   -8.5877 N.am        1 GMY      -0.2158
     23 O23        21.0780  -36.1606   -7.1365 O.2         1 GMY      -0.3575
     24 O24        18.7839  -32.2999   -5.1128 O.2         1 GMY      -0.3865
     25 O25        19.7765  -34.0574   -3.3535 O.3         1 GMY      -0.3151
     26 C26        20.4468  -33.0687   -2.5299 C.3         1 GMY       0.0602
     27 C27        23.5664  -37.3132   -5.1853 C.3         1 GMY      -0.0609
     28 O28        25.6349  -37.2555   -1.7979 O.3         1 GMY      -0.3771
     29 C29        25.9474  -38.4357   -2.5621 C.3         1 GMY       0.0369
     30 O30        24.5458  -35.0378   -0.3630 O.3         1 GMY      -0.3877
     31 C31        24.9470  -32.3413   -1.2749 C.3         1 GMY      -0.0567
     32 C32        24.0835  -32.0483   -4.8028 C.3         1 GMY      -0.0373
     33 O33        26.5306  -30.6262   -5.4717 O.3         1 GMY      -0.2436
     34 C34        27.5664  -29.7636   -5.6558 C.2         1 GMY       0.3194
     35 O35        28.8361  -30.1920   -5.8436 O.2         1 GMY      -0.3776
     36 N36        27.3208  -28.4468   -5.6357 N.am        1 GMY      -0.2762
     37 O37        27.6407  -32.2571   -7.6054 O.3         1 GMY      -0.3598
     38 C38        27.5742  -32.2544   -9.0426 C.3         1 GMY       0.0406
     39 C39        23.6331  -36.2824   -9.4188 C.3         1 GMY      -0.0273
     40 O40        22.2877  -33.9974  -10.4552 O.2         1 GMY      -0.3753
     41 H1         19.8694  -32.1856   -7.3143 H           1 GMY       0.0327
     42 H2         21.0291  -37.1320   -4.7486 H           1 GMY       0.0392
     43 H3         20.9675  -36.1537   -3.3382 H           1 GMY       0.0392
     44 H4         23.3738  -35.2765   -4.5350 H           1 GMY       0.0317
     45 H5         23.2365  -37.4968   -2.4670 H           1 GMY       0.0295
     46 H6         22.8673  -35.8443   -2.0857 H           1 GMY       0.0295
     47 H7         25.5140  -35.9902   -3.4287 H           1 GMY       0.0623
     48 H8         26.3106  -34.8633   -1.3411 H           1 GMY       0.0637
     49 H9         23.8580  -33.6004   -2.6247 H           1 GMY       0.0398
     50 H10        26.7107  -33.4915   -3.3048 H           1 GMY       0.0247
     51 H11        27.5202  -32.3715   -5.0510 H           1 GMY       0.0853
     52 H12        25.5863  -32.1442   -7.3773 H           1 GMY       0.0852
     53 H13        27.0939  -34.5831   -6.5021 H           1 GMY       0.0741
     54 H14        25.3921  -35.8183   -7.2154 H           1 GMY       0.0436
     55 H15        23.8085  -33.5023   -7.5197 H           1 GMY       0.0539
     56 H16        20.6999  -33.1802   -9.0927 H           1 GMY       0.2392
     57 H17        20.1561  -33.2310   -1.4874 H           1 GMY       0.0581
     58 H18        20.1439  -32.0459   -2.8051 H           1 GMY       0.0581
     59 H19        21.5415  -33.1502   -2.5966 H           1 GMY       0.0581
     60 H20        23.2730  -37.1120   -6.2154 H           1 GMY       0.0234
     61 H21        23.2083  -38.3095   -4.9177 H           1 GMY       0.0234
     62 H22        24.6576  -37.3241   -5.1563 H           1 GMY       0.0234
     63 H23        26.3981  -39.1711   -1.8922 H           1 GMY       0.0524
     64 H24        26.6678  -38.2051   -3.3519 H           1 GMY       0.0524
     65 H25        25.0543  -38.8778   -3.0035 H           1 GMY       0.0524
     66 H26        24.9377  -35.8277    0.0672 H           1 GMY       0.2101
     67 H27        24.7365  -31.3859   -1.7646 H           1 GMY       0.0247
     68 H28        25.9313  -32.2751   -0.7988 H           1 GMY       0.0247
     69 H29        24.1919  -32.4815   -0.4966 H           1 GMY       0.0247
     70 H30        23.6932  -31.4468   -3.9833 H           1 GMY       0.0376
     71 H31        23.4387  -32.9141   -4.9429 H           1 GMY       0.0376
     72 H32        24.0131  -31.4422   -5.7054 H           1 GMY       0.0376
     73 H33        28.0461  -27.8152   -5.7749 H           1 GMY       0.1831
     74 H34        26.4160  -28.1226   -5.4947 H           1 GMY       0.1831
     75 H35        28.5621  -32.0133   -9.4349 H           1 GMY       0.0527
     76 H36        26.8685  -31.4971   -9.3906 H           1 GMY       0.0527
     77 H37        27.2803  -33.2329   -9.4279 H           1 GMY       0.0527
     78 H38        24.5201  -36.7804   -9.0345 H           1 GMY       0.0384
     79 H39        23.7788  -36.1594  -10.4944 H           1 GMY       0.0384
     80 H40        22.7855  -36.9507   -9.2591 H           1 GMY       0.0384
@<TRIPOS>BOND
     1     1     2   1
     2     1     6   2
     3     1     7   1
     4     2     3   1
     5     2    23   2
     6     3     4   2
     7     3    22   1
     8     4     5   1
     9     5     6   1
    10     5    24   2
    11     6    25   1
    12     7     8   1
    13     8     9   1
    14     8    27   1
    15     9    10   1
    16    10    11   1
    17    10    28   1
    18    11    12   1
    19    11    30   1
    20    12    13   1
    21    12    31   1
    22    13    14   2
    23    14    15   1
    24    14    32   1
    25    15    16   1
    26    15    33   1
    27    16    17   1
    28    16    37   1
    29    17    18   2
    30    18    19   1
    31    19    20   2
    32    20    21   1
    33    20    39   1
    34    21    22  am
    35    21    40   2
    36    25    26   1
    37    28    29   1
    38    33    34   1
    39    34    35   2
    40    34    36  am
    41    37    38   1
    42     4    41   1
    43     7    42   1
    44     7    43   1
    45     8    44   1
    46     9    45   1
    47     9    46   1
    48    10    47   1
    49    11    48   1
    50    12    49   1
    51    13    50   1
    52    15    51   1
    53    16    52   1
    54    17    53   1
    55    18    54   1
    56    19    55   1
    57    22    56   1
    58    26    57   1
    59    26    58   1
    60    26    59   1
    61    27    60   1
    62    27    61   1
    63    27    62   1
    64    29    63   1
    65    29    64   1
    66    29    65   1
    67    30    66   1
    68    31    67   1
    69    31    68   1
    70    31    69   1
    71    32    70   1
    72    32    71   1
    73    32    72   1
    74    36    73   1
    75    36    74   1
    76    38    75   1
    77    38    76   1
    78    38    77   1
    79    39    78   1
    80    39    79   1
    81    39    80   1
@<TRIPOS>SUBSTRUCTURE
     1  GMY      1

