@<TRIPOS>MOLECULE
2yge_ligand_021
    80    81
SMALL
GAST_HUCK
****
This file was generated by PARSER (from files_GN.cpp)

@<TRIPOS>ATOM
      1 C1         27.5862  -28.6356   -3.4954 C.2         1 GMY       0.0496
      2 C2         26.9462  -29.3987   -2.5190 C.2         1 GMY       0.1905
      3 C3         25.6985  -29.0414   -2.0443 C.2         1 GMY       0.1367
      4 C4         25.2454  -27.7944   -2.3125 C.2         1 GMY       0.0078
      5 C5         25.9715  -26.9392   -3.0891 C.2         1 GMY       0.1522
      6 C6         27.0787  -27.3996   -3.7738 C.2         1 GMY       0.1484
      7 C7         28.8104  -29.1495   -4.1534 C.3         1 GMY      -0.0163
      8 C8         28.6045  -30.3984   -5.0906 C.3         1 GMY      -0.0344
      9 C9         29.1914  -30.1728   -6.5275 C.3         1 GMY      -0.0200
     10 C10        28.6996  -31.1723   -7.6315 C.3         1 GMY       0.0859
     11 C11        27.8080  -30.4954   -8.7248 C.3         1 GMY       0.0868
     12 C12        26.4027  -30.0191   -8.1962 C.3         1 GMY      -0.0094
     13 C13        25.5035  -31.1554   -7.9342 C.2         1 GMY      -0.1006
     14 C14        24.5637  -31.2820   -6.9637 C.2         1 GMY      -0.0457
     15 C15        23.8021  -32.5521   -6.8340 C.3         1 GMY       0.1504
     16 C16        23.9811  -33.3114   -5.4828 C.3         1 GMY       0.1288
     17 C17        25.3859  -33.5059   -5.1173 C.2         1 GMY      -0.0424
     18 C18        25.9810  -33.0367   -4.0059 C.2         1 GMY      -0.0729
     19 C19        25.4433  -32.1108   -3.1774 C.2         1 GMY      -0.0656
     20 C20        25.3957  -32.1437   -1.8285 C.2         1 GMY       0.0245
     21 C21        24.7454  -31.1315   -1.1750 C.2         1 GMY       0.2316
     22 N22        24.8843  -29.8129   -1.3001 N.am        1 GMY      -0.2158
     23 O23        27.6143  -30.1160   -1.7838 O.2         1 GMY      -0.3575
     24 O24        25.6056  -25.7687   -3.1917 O.2         1 GMY      -0.3865
     25 O25        27.6966  -26.5492   -4.6158 O.3         1 GMY      -0.3151
     26 C26        27.0629  -26.4387   -5.9084 C.3         1 GMY       0.0602
     27 C27        29.2265  -31.6823   -4.4673 C.3         1 GMY      -0.0609
     28 O28        29.8758  -31.7508   -8.2440 O.3         1 GMY      -0.3771
     29 C29        29.7585  -33.0709   -8.8039 C.3         1 GMY       0.0369
     30 O30        28.5464  -29.4163   -9.3158 O.3         1 GMY      -0.3877
     31 C31        25.7487  -28.9883   -9.1580 C.3         1 GMY      -0.0567
     32 C32        24.2190  -30.1584   -6.0867 C.3         1 GMY      -0.0373
     33 O33        22.4051  -32.2386   -6.9954 O.3         1 GMY      -0.2436
     34 C34        21.3746  -33.0632   -7.3041 C.2         1 GMY       0.3194
     35 O35        21.5444  -34.3775   -7.5697 O.2         1 GMY      -0.3776
     36 N36        20.1385  -32.5430   -7.3664 N.am        1 GMY      -0.2762
     37 O37        23.3708  -34.6182   -5.6011 O.3         1 GMY      -0.3598
     38 C38        22.9777  -35.2602   -4.3737 C.3         1 GMY       0.0406
     39 C39        25.8486  -33.2889   -1.0282 C.3         1 GMY      -0.0273
     40 O40        23.8066  -31.4574   -0.4592 O.2         1 GMY      -0.3753
     41 H1         24.3614  -27.4953   -1.9613 H           1 GMY       0.0327
     42 H2         29.5402  -29.3830   -3.3740 H           1 GMY       0.0392
     43 H3         29.3004  -28.3588   -4.7232 H           1 GMY       0.0392
     44 H4         27.5305  -30.5781   -5.2052 H           1 GMY       0.0317
     45 H5         30.2839  -30.1999   -6.4481 H           1 GMY       0.0295
     46 H6         28.9559  -29.1526   -6.8381 H           1 GMY       0.0295
     47 H7         28.1052  -31.9617   -7.1626 H           1 GMY       0.0623
     48 H8         27.6400  -31.2067   -9.5384 H           1 GMY       0.0637
     49 H9         26.5755  -29.4912   -7.2622 H           1 GMY       0.0398
     50 H10        25.6035  -31.9202   -8.5630 H           1 GMY       0.0247
     51 H11        24.0798  -33.2512   -7.6314 H           1 GMY       0.0853
     52 H12        23.4368  -32.7439   -4.7198 H           1 GMY       0.0852
     53 H13        25.9222  -34.1021   -5.7058 H           1 GMY       0.0741
     54 H14        26.9038  -33.3471   -3.8144 H           1 GMY       0.0436
     55 H15        25.0349  -31.3306   -3.6345 H           1 GMY       0.0539
     56 H16        24.2184  -29.3046   -0.8021 H           1 GMY       0.2392
     57 H17        27.6020  -25.6889   -6.4952 H           1 GMY       0.0581
     58 H18        26.0142  -26.1271   -5.8227 H           1 GMY       0.0581
     59 H19        27.1161  -27.3808   -6.4517 H           1 GMY       0.0581
     60 H20        28.8068  -31.8582   -3.4786 H           1 GMY       0.0234
     61 H21        30.3082  -31.5734   -4.3715 H           1 GMY       0.0234
     62 H22        29.0224  -32.5610   -5.0776 H           1 GMY       0.0234
     63 H23        30.7266  -33.3444   -9.2229 H           1 GMY       0.0524
     64 H24        29.0120  -33.1039   -9.6004 H           1 GMY       0.0524
     65 H25        29.4995  -33.7996   -8.0309 H           1 GMY       0.0524
     66 H26        29.3287  -29.8287   -9.7363 H           1 GMY       0.2101
     67 H27        24.7582  -28.6974   -8.8100 H           1 GMY       0.0247
     68 H28        25.6669  -29.3976  -10.1652 H           1 GMY       0.0247
     69 H29        26.3500  -28.0797   -9.2080 H           1 GMY       0.0247
     70 H30        23.8497  -29.3212   -6.6790 H           1 GMY       0.0376
     71 H31        25.0871  -29.8277   -5.5167 H           1 GMY       0.0376
     72 H32        23.4352  -30.4105   -5.3710 H           1 GMY       0.0376
     73 H33        19.3894  -33.1142   -7.5907 H           1 GMY       0.1831
     74 H34        20.0005  -31.5950   -7.2085 H           1 GMY       0.1831
     75 H35        22.6549  -36.2759   -4.6024 H           1 GMY       0.0527
     76 H36        22.1419  -34.7244   -3.9199 H           1 GMY       0.0527
     77 H37        23.8050  -35.3126   -3.6628 H           1 GMY       0.0527
     78 H38        26.4125  -34.0319   -1.5944 H           1 GMY       0.0384
     79 H39        24.9881  -33.8033   -0.5913 H           1 GMY       0.0384
     80 H40        26.4875  -32.9403   -0.2149 H           1 GMY       0.0384
@<TRIPOS>BOND
     1     1     2   1
     2     1     6   2
     3     1     7   1
     4     2     3   1
     5     2    23   2
     6     3     4   2
     7     3    22   1
     8     4     5   1
     9     5     6   1
    10     5    24   2
    11     6    25   1
    12     7     8   1
    13     8     9   1
    14     8    27   1
    15     9    10   1
    16    10    11   1
    17    10    28   1
    18    11    12   1
    19    11    30   1
    20    12    13   1
    21    12    31   1
    22    13    14   2
    23    14    15   1
    24    14    32   1
    25    15    16   1
    26    15    33   1
    27    16    17   1
    28    16    37   1
    29    17    18   2
    30    18    19   1
    31    19    20   2
    32    20    21   1
    33    20    39   1
    34    21    22  am
    35    21    40   2
    36    25    26   1
    37    28    29   1
    38    33    34   1
    39    34    35   2
    40    34    36  am
    41    37    38   1
    42     4    41   1
    43     7    42   1
    44     7    43   1
    45     8    44   1
    46     9    45   1
    47     9    46   1
    48    10    47   1
    49    11    48   1
    50    12    49   1
    51    13    50   1
    52    15    51   1
    53    16    52   1
    54    17    53   1
    55    18    54   1
    56    19    55   1
    57    22    56   1
    58    26    57   1
    59    26    58   1
    60    26    59   1
    61    27    60   1
    62    27    61   1
    63    27    62   1
    64    29    63   1
    65    29    64   1
    66    29    65   1
    67    30    66   1
    68    31    67   1
    69    31    68   1
    70    31    69   1
    71    32    70   1
    72    32    71   1
    73    32    72   1
    74    36    73   1
    75    36    74   1
    76    38    75   1
    77    38    76   1
    78    38    77   1
    79    39    78   1
    80    39    79   1
    81    39    80   1
@<TRIPOS>SUBSTRUCTURE
     1  GMY      1

