@<TRIPOS>MOLECULE
2yge_ligand_025
    80    81
SMALL
GAST_HUCK
****
This file was generated by PARSER (from files_GN.cpp)

@<TRIPOS>ATOM
      1 C1         23.7652  -33.9551   -2.4001 C.2         1 GMY       0.0496
      2 C2         23.8393  -32.6148   -2.7704 C.2         1 GMY       0.1905
      3 C3         24.7747  -31.7667   -2.2061 C.2         1 GMY       0.1367
      4 C4         25.5129  -32.2262   -1.1704 C.2         1 GMY       0.0078
      5 C5         25.4027  -33.5254   -0.7361 C.2         1 GMY       0.1522
      6 C6         24.5206  -34.3849   -1.3528 C.2         1 GMY       0.1484
      7 C7         22.9141  -34.8761   -3.1788 C.3         1 GMY      -0.0163
      8 C8         23.5341  -35.2644   -4.5670 C.3         1 GMY      -0.0344
      9 C9         24.6244  -36.3775   -4.4033 C.3         1 GMY      -0.0200
     10 C10        25.5311  -36.7027   -5.6365 C.3         1 GMY       0.0859
     11 C11        26.8267  -37.5076   -5.2654 C.3         1 GMY       0.0868
     12 C12        27.9963  -36.6603   -4.6434 C.3         1 GMY      -0.0094
     13 C13        28.5038  -35.6501   -5.5833 C.2         1 GMY      -0.1006
     14 C14        28.8151  -34.3562   -5.3240 C.2         1 GMY      -0.0457
     15 C15        29.3476  -33.4941   -6.4021 C.3         1 GMY       0.1504
     16 C16        28.4384  -32.2651   -6.7422 C.3         1 GMY       0.1288
     17 C17        27.0550  -32.6585   -7.0432 C.2         1 GMY      -0.0424
     18 C18        25.9308  -32.2886   -6.3967 C.2         1 GMY      -0.0729
     19 C19        25.8728  -31.5431   -5.2603 C.2         1 GMY      -0.0656
     20 C20        24.9595  -30.5854   -4.9815 C.2         1 GMY       0.0245
     21 C21        25.0254  -29.9387   -3.7829 C.2         1 GMY       0.2316
     22 N22        24.9833  -30.4895   -2.5759 N.am        1 GMY      -0.2158
     23 O23        22.9310  -32.1174   -3.4261 O.2         1 GMY      -0.3575
     24 O24        26.1883  -33.9296    0.1126 O.2         1 GMY      -0.3865
     25 O25        24.5165  -35.6847   -1.0194 O.3         1 GMY      -0.3151
     26 C26        24.0122  -35.9858    0.3097 C.3         1 GMY       0.0602
     27 C27        22.4090  -35.6673   -5.5661 C.3         1 GMY      -0.0609
     28 O28        24.8079  -37.3002   -6.7392 O.3         1 GMY      -0.3771
     29 C29        24.3762  -38.6721   -6.6947 C.3         1 GMY       0.0369
     30 O30        26.4565  -38.5581   -4.3633 O.3         1 GMY      -0.3877
     31 C31        29.1885  -37.5443   -4.1777 C.3         1 GMY      -0.0567
     32 C32        28.6934  -33.8099   -3.9668 C.3         1 GMY      -0.0373
     33 O33        30.6548  -33.0828   -5.9608 O.3         1 GMY      -0.2436
     34 C34        31.7084  -32.6276   -6.6929 C.2         1 GMY       0.3194
     35 O35        31.6597  -32.4737   -8.0399 O.2         1 GMY      -0.3776
     36 N36        32.8602  -32.3529   -6.0531 N.am        1 GMY      -0.2762
     37 O37        29.0178  -31.4206   -7.7683 O.3         1 GMY      -0.3598
     38 C38        28.9223  -31.7745   -9.1663 C.3         1 GMY       0.0406
     39 C39        23.9322  -30.1810   -5.9439 C.3         1 GMY      -0.0273
     40 O40        25.2870  -28.7446   -3.8050 O.2         1 GMY      -0.3753
     41 H1         26.1867  -31.6263   -0.7396 H           1 GMY       0.0327
     42 H2         21.9408  -34.3994   -3.3162 H           1 GMY       0.0392
     43 H3         22.6906  -35.7947   -2.6283 H           1 GMY       0.0392
     44 H4         24.0199  -34.3782   -4.9953 H           1 GMY       0.0317
     45 H5         24.1383  -37.2923   -4.0541 H           1 GMY       0.0295
     46 H6         25.2835  -36.0526   -3.5983 H           1 GMY       0.0295
     47 H7         25.8494  -35.7400   -6.0365 H           1 GMY       0.0623
     48 H8         27.2057  -37.9814   -6.1768 H           1 GMY       0.0637
     49 H9         27.5993  -36.1902   -3.7435 H           1 GMY       0.0398
     50 H10        28.6717  -35.9894   -6.5041 H           1 GMY       0.0247
     51 H11        29.4796  -34.0670   -7.3289 H           1 GMY       0.0853
     52 H12        28.4567  -31.6129   -5.8738 H           1 GMY       0.0852
     53 H13        26.9278  -33.2542   -7.8287 H           1 GMY       0.0741
     54 H14        25.0627  -32.6228   -6.7669 H           1 GMY       0.0436
     55 H15        26.5566  -31.7474   -4.5724 H           1 GMY       0.0539
     56 H16        25.2317  -29.8915   -1.8543 H           1 GMY       0.2392
     57 H17        23.8200  -37.0671    0.3712 H           1 GMY       0.0581
     58 H18        23.0728  -35.4516    0.5353 H           1 GMY       0.0581
     59 H19        24.7662  -35.7320    1.0692 H           1 GMY       0.0581
     60 H20        21.6477  -34.8841   -5.6205 H           1 GMY       0.0234
     61 H21        21.9305  -36.6001   -5.2513 H           1 GMY       0.0234
     62 H22        22.8096  -35.7934   -6.5746 H           1 GMY       0.0234
     63 H23        23.7609  -38.8651   -7.5748 H           1 GMY       0.0524
     64 H24        23.7776  -38.8840   -5.8089 H           1 GMY       0.0524
     65 H25        25.2292  -39.3527   -6.7302 H           1 GMY       0.0524
     66 H26        26.8935  -39.3717   -4.7037 H           1 GMY       0.2101
     67 H27        29.9927  -36.9261   -3.7705 H           1 GMY       0.0247
     68 H28        29.5858  -38.1313   -5.0067 H           1 GMY       0.0247
     69 H29        28.8734  -38.2255   -3.3866 H           1 GMY       0.0247
     70 H30        29.2893  -34.3999   -3.2685 H           1 GMY       0.0376
     71 H31        27.6481  -33.8244   -3.6474 H           1 GMY       0.0376
     72 H32        29.0453  -32.7780   -3.8942 H           1 GMY       0.0376
     73 H33        33.6368  -32.0373   -6.5563 H           1 GMY       0.1831
     74 H34        32.9285  -32.4869   -5.0872 H           1 GMY       0.1831
     75 H35        29.5636  -31.0933   -9.7338 H           1 GMY       0.0527
     76 H36        27.8923  -31.6496   -9.5265 H           1 GMY       0.0527
     77 H37        29.2519  -32.8012   -9.3529 H           1 GMY       0.0527
     78 H38        24.3918  -29.8977   -6.9008 H           1 GMY       0.0384
     79 H39        23.3357  -29.3256   -5.6023 H           1 GMY       0.0384
     80 H40        23.2344  -31.0100   -6.1257 H           1 GMY       0.0384
@<TRIPOS>BOND
     1     1     2   1
     2     1     6   2
     3     1     7   1
     4     2     3   1
     5     2    23   2
     6     3     4   2
     7     3    22   1
     8     4     5   1
     9     5     6   1
    10     5    24   2
    11     6    25   1
    12     7     8   1
    13     8     9   1
    14     8    27   1
    15     9    10   1
    16    10    11   1
    17    10    28   1
    18    11    12   1
    19    11    30   1
    20    12    13   1
    21    12    31   1
    22    13    14   2
    23    14    15   1
    24    14    32   1
    25    15    16   1
    26    15    33   1
    27    16    17   1
    28    16    37   1
    29    17    18   2
    30    18    19   1
    31    19    20   2
    32    20    21   1
    33    20    39   1
    34    21    22  am
    35    21    40   2
    36    25    26   1
    37    28    29   1
    38    33    34   1
    39    34    35   2
    40    34    36  am
    41    37    38   1
    42     4    41   1
    43     7    42   1
    44     7    43   1
    45     8    44   1
    46     9    45   1
    47     9    46   1
    48    10    47   1
    49    11    48   1
    50    12    49   1
    51    13    50   1
    52    15    51   1
    53    16    52   1
    54    17    53   1
    55    18    54   1
    56    19    55   1
    57    22    56   1
    58    26    57   1
    59    26    58   1
    60    26    59   1
    61    27    60   1
    62    27    61   1
    63    27    62   1
    64    29    63   1
    65    29    64   1
    66    29    65   1
    67    30    66   1
    68    31    67   1
    69    31    68   1
    70    31    69   1
    71    32    70   1
    72    32    71   1
    73    32    72   1
    74    36    73   1
    75    36    74   1
    76    38    75   1
    77    38    76   1
    78    38    77   1
    79    39    78   1
    80    39    79   1
    81    39    80   1
@<TRIPOS>SUBSTRUCTURE
     1  GMY      1

