@<TRIPOS>MOLECULE
2yge_ligand_007
    80    81
SMALL
GAST_HUCK
****
This file was generated by PARSER (from files_GN.cpp)

@<TRIPOS>ATOM
      1 C1         31.4423  -32.3702   -6.7535 C.2         1 GMY       0.0496
      2 C2         31.6466  -33.2221   -5.6752 C.2         1 GMY       0.1905
      3 C3         31.6956  -32.7278   -4.3882 C.2         1 GMY       0.1367
      4 C4         31.8784  -31.3990   -4.2192 C.2         1 GMY       0.0078
      5 C5         31.8221  -30.5441   -5.2867 C.2         1 GMY       0.1522
      6 C6         31.5533  -31.0286   -6.5517 C.2         1 GMY       0.1484
      7 C7         30.9733  -32.9479   -8.0273 C.3         1 GMY      -0.0163
      8 C8         29.4524  -33.3462   -7.9841 C.3         1 GMY      -0.0344
      9 C9         28.5636  -32.2643   -8.6847 C.3         1 GMY      -0.0200
     10 C10        27.0277  -32.3230   -8.4075 C.3         1 GMY       0.0859
     11 C11        26.3159  -30.9329   -8.5893 C.3         1 GMY       0.0868
     12 C12        26.4915  -29.9407   -7.3829 C.3         1 GMY      -0.0094
     13 C13        25.8578  -30.4745   -6.1711 C.2         1 GMY      -0.1006
     14 C14        26.4175  -30.7236   -4.9666 C.2         1 GMY      -0.0457
     15 C15        25.5763  -31.2851   -3.8811 C.3         1 GMY       0.1504
     16 C16        26.0705  -32.6609   -3.3282 C.3         1 GMY       0.1288
     17 C17        26.3663  -33.6444   -4.3774 C.2         1 GMY      -0.0424
     18 C18        27.5338  -34.2655   -4.6414 C.2         1 GMY      -0.0729
     19 C19        28.7191  -34.0686   -3.9956 C.2         1 GMY      -0.0656
     20 C20        29.7451  -34.9451   -3.8455 C.2         1 GMY       0.0245
     21 C21        30.8089  -34.5532   -3.0750 C.2         1 GMY       0.2316
     22 N22        31.5928  -33.4976   -3.2913 N.am        1 GMY      -0.2158
     23 O23        32.1009  -34.3417   -5.8741 O.2         1 GMY      -0.3575
     24 O24        31.9033  -29.3403   -5.0819 O.2         1 GMY      -0.3865
     25 O25        31.2202  -30.1545   -7.5199 O.3         1 GMY      -0.3151
     26 C26        32.3352  -29.6330   -8.2653 C.3         1 GMY       0.0602
     27 C27        29.2212  -34.7751   -8.5460 C.3         1 GMY      -0.0609
     28 O28        26.4237  -33.2635   -9.3316 O.3         1 GMY      -0.3771
     29 C29        25.5333  -34.2424   -8.7581 C.3         1 GMY       0.0369
     30 O30        26.7270  -30.3339   -9.8258 O.3         1 GMY      -0.3877
     31 C31        25.8895  -28.5340   -7.6659 C.3         1 GMY      -0.0567
     32 C32        27.8327  -30.4522   -4.7192 C.3         1 GMY      -0.0373
     33 O33        25.4605  -30.4089   -2.7482 O.3         1 GMY      -0.2436
     34 C34        25.6384  -29.0665   -2.6359 C.2         1 GMY       0.3194
     35 O35        26.0686  -28.2946   -3.6613 O.2         1 GMY      -0.3776
     36 N36        25.4111  -28.5032   -1.4436 N.am        1 GMY      -0.2762
     37 O37        25.0079  -33.2108   -2.5142 O.3         1 GMY      -0.3598
     38 C38        25.3538  -33.6926   -1.2012 C.3         1 GMY       0.0406
     39 C39        29.7795  -36.3173   -4.3639 C.3         1 GMY      -0.0273
     40 O40        30.9041  -35.0736   -1.9723 O.2         1 GMY      -0.3753
     41 H1         31.9879  -31.0280   -3.3047 H           1 GMY       0.0327
     42 H2         31.5976  -33.8167   -8.2663 H           1 GMY       0.0392
     43 H3         31.1526  -32.2667   -8.8636 H           1 GMY       0.0392
     44 H4         29.1310  -33.3867   -6.9408 H           1 GMY       0.0317
     45 H5         28.7381  -32.2994   -9.7659 H           1 GMY       0.0295
     46 H6         28.9295  -31.2926   -8.3410 H           1 GMY       0.0295
     47 H7         26.8954  -32.6578   -7.3743 H           1 GMY       0.0623
     48 H8         25.2473  -31.1247   -8.7007 H           1 GMY       0.0637
     49 H9         27.5636  -29.7801   -7.2422 H           1 GMY       0.0398
     50 H10        24.8871  -30.6699   -6.2766 H           1 GMY       0.0247
     51 H11        24.5460  -31.4384   -4.2245 H           1 GMY       0.0853
     52 H12        26.9446  -32.4620   -2.7077 H           1 GMY       0.0852
     53 H13        25.5960  -33.8869   -4.9644 H           1 GMY       0.0741
     54 H14        27.5355  -34.8842   -5.4238 H           1 GMY       0.0436
     55 H15        28.8484  -33.1652   -3.6043 H           1 GMY       0.0539
     56 H16        32.0670  -33.1855   -2.5080 H           1 GMY       0.2392
     57 H17        31.9415  -28.9722   -9.0393 H           1 GMY       0.0581
     58 H18        32.9034  -30.4298   -8.7540 H           1 GMY       0.0581
     59 H19        33.0033  -29.0499   -7.6263 H           1 GMY       0.0581
     60 H20        29.8577  -35.4907   -8.0195 H           1 GMY       0.0234
     61 H21        29.4598  -34.8152   -9.6100 H           1 GMY       0.0234
     62 H22        28.1836  -35.0875   -8.4025 H           1 GMY       0.0234
     63 H23        25.0653  -34.7990   -9.5699 H           1 GMY       0.0524
     64 H24        24.7487  -33.7679   -8.1600 H           1 GMY       0.0524
     65 H25        26.0980  -34.9460   -8.1311 H           1 GMY       0.0524
     66 H26        27.5772  -29.8870   -9.6279 H           1 GMY       0.2101
     67 H27        26.0067  -27.8887   -6.7925 H           1 GMY       0.0247
     68 H28        24.8262  -28.6023   -7.9084 H           1 GMY       0.0247
     69 H29        26.4042  -28.0548   -8.5006 H           1 GMY       0.0247
     70 H30        28.0642  -29.4060   -4.9180 H           1 GMY       0.0376
     71 H31        28.4432  -31.0863   -5.3659 H           1 GMY       0.0376
     72 H32        28.1230  -30.6508   -3.6882 H           1 GMY       0.0376
     73 H33        25.5640  -27.5578   -1.3184 H           1 GMY       0.1831
     74 H34        25.0774  -29.0436   -0.7096 H           1 GMY       0.1831
     75 H35        24.4709  -34.1621   -0.7649 H           1 GMY       0.0527
     76 H36        25.6593  -32.8574   -0.5635 H           1 GMY       0.0527
     77 H37        26.1594  -34.4329   -1.2541 H           1 GMY       0.0527
     78 H38        28.8786  -36.6122   -4.9060 H           1 GMY       0.0384
     79 H39        29.9050  -37.0327   -3.5449 H           1 GMY       0.0384
     80 H40        30.6238  -36.4364   -5.0461 H           1 GMY       0.0384
@<TRIPOS>BOND
     1     1     2   1
     2     1     6   2
     3     1     7   1
     4     2     3   1
     5     2    23   2
     6     3     4   2
     7     3    22   1
     8     4     5   1
     9     5     6   1
    10     5    24   2
    11     6    25   1
    12     7     8   1
    13     8     9   1
    14     8    27   1
    15     9    10   1
    16    10    11   1
    17    10    28   1
    18    11    12   1
    19    11    30   1
    20    12    13   1
    21    12    31   1
    22    13    14   2
    23    14    15   1
    24    14    32   1
    25    15    16   1
    26    15    33   1
    27    16    17   1
    28    16    37   1
    29    17    18   2
    30    18    19   1
    31    19    20   2
    32    20    21   1
    33    20    39   1
    34    21    22  am
    35    21    40   2
    36    25    26   1
    37    28    29   1
    38    33    34   1
    39    34    35   2
    40    34    36  am
    41    37    38   1
    42     4    41   1
    43     7    42   1
    44     7    43   1
    45     8    44   1
    46     9    45   1
    47     9    46   1
    48    10    47   1
    49    11    48   1
    50    12    49   1
    51    13    50   1
    52    15    51   1
    53    16    52   1
    54    17    53   1
    55    18    54   1
    56    19    55   1
    57    22    56   1
    58    26    57   1
    59    26    58   1
    60    26    59   1
    61    27    60   1
    62    27    61   1
    63    27    62   1
    64    29    63   1
    65    29    64   1
    66    29    65   1
    67    30    66   1
    68    31    67   1
    69    31    68   1
    70    31    69   1
    71    32    70   1
    72    32    71   1
    73    32    72   1
    74    36    73   1
    75    36    74   1
    76    38    75   1
    77    38    76   1
    78    38    77   1
    79    39    78   1
    80    39    79   1
    81    39    80   1
@<TRIPOS>SUBSTRUCTURE
     1  GMY      1

