@<TRIPOS>MOLECULE
2yge_ligand_015
    80    81
SMALL
GAST_HUCK
****
This file was generated by PARSER (from files_GN.cpp)

@<TRIPOS>ATOM
      1 C1         23.8284  -31.6366   -4.0951 C.2         1 GMY       0.0496
      2 C2         25.0308  -31.4122   -4.7649 C.2         1 GMY       0.1905
      3 C3         26.2463  -31.5604   -4.1211 C.2         1 GMY       0.1367
      4 C4         26.2486  -31.7169   -2.7759 C.2         1 GMY       0.0078
      5 C5         25.0765  -31.8410   -2.0815 C.2         1 GMY       0.1522
      6 C6         23.8680  -31.8817   -2.7547 C.2         1 GMY       0.1484
      7 C7         22.5593  -31.5224   -4.8446 C.3         1 GMY      -0.0163
      8 C8         22.2880  -32.6628   -5.8879 C.3         1 GMY      -0.0344
      9 C9         22.0252  -34.0045   -5.1235 C.3         1 GMY      -0.0200
     10 C10        21.8036  -35.3483   -5.8856 C.3         1 GMY       0.0859
     11 C11        21.4581  -36.5239   -4.9013 C.3         1 GMY       0.0868
     12 C12        22.6050  -37.0064   -3.9449 C.3         1 GMY      -0.0094
     13 C13        23.7451  -37.5547   -4.6929 C.2         1 GMY      -0.1006
     14 C14        25.0546  -37.2198   -4.5795 C.2         1 GMY      -0.0457
     15 C15        26.0667  -37.8459   -5.4616 C.3         1 GMY       0.1504
     16 C16        26.7205  -36.8314   -6.4693 C.3         1 GMY       0.1288
     17 C17        25.7400  -35.9624   -7.1327 C.2         1 GMY      -0.0424
     18 C18        25.6904  -34.6171   -7.1180 C.2         1 GMY      -0.0729
     19 C19        26.5135  -33.8076   -6.4078 C.2         1 GMY      -0.0656
     20 C20        27.0649  -32.6486   -6.8269 C.2         1 GMY       0.0245
     21 C21        27.8202  -31.9321   -5.9374 C.2         1 GMY       0.2316
     22 N22        27.4483  -31.5176   -4.7273 N.am        1 GMY      -0.2158
     23 O23        25.0238  -30.7644   -5.8017 O.2         1 GMY      -0.3575
     24 O24        25.1092  -31.7877   -0.8572 O.2         1 GMY      -0.3865
     25 O25        22.7337  -31.9463   -2.0256 O.3         1 GMY      -0.3151
     26 C26        22.2998  -33.2340   -1.5447 C.3         1 GMY       0.0602
     27 C27        21.1130  -32.2360   -6.8191 C.3         1 GMY      -0.0609
     28 O28        20.7109  -35.1816   -6.8134 O.3         1 GMY      -0.3771
     29 C29        20.6745  -36.0596   -7.9523 C.3         1 GMY       0.0369
     30 O30        20.3215  -36.1474   -4.1148 O.3         1 GMY      -0.3877
     31 C31        22.0953  -38.0722   -2.9302 C.3         1 GMY      -0.0567
     32 C32        25.5042  -36.2435   -3.5835 C.3         1 GMY      -0.0373
     33 O33        26.9972  -38.4730   -4.5553 O.3         1 GMY      -0.2436
     34 C34        28.1376  -39.1882   -4.7093 C.2         1 GMY       0.3194
     35 O35        28.7261  -39.4181   -5.9112 O.2         1 GMY      -0.3776
     36 N36        28.7152  -39.6818   -3.6155 N.am        1 GMY      -0.2762
     37 O37        27.5918  -37.4343   -7.4512 O.3         1 GMY      -0.3598
     38 C38        27.0882  -38.3499   -8.4496 C.3         1 GMY       0.0406
     39 C39        26.9450  -32.1118   -8.1857 C.3         1 GMY      -0.0273
     40 O40        29.0096  -31.7866   -6.1874 O.2         1 GMY      -0.3753
     41 H1         27.1143  -31.7773   -2.2850 H           1 GMY       0.0327
     42 H2         22.5628  -30.5508   -5.3446 H           1 GMY       0.0392
     43 H3         21.6985  -31.4873   -4.1757 H           1 GMY       0.0392
     44 H4         23.1720  -32.7835   -6.5197 H           1 GMY       0.0317
     45 H5         21.1706  -33.8357   -4.4614 H           1 GMY       0.0295
     46 H6         22.8977  -34.1659   -4.4923 H           1 GMY       0.0295
     47 H7         22.7303  -35.5812   -6.4186 H           1 GMY       0.0623
     48 H8         21.1468  -37.3927   -5.4868 H           1 GMY       0.0637
     49 H9         22.9034  -36.1547   -3.3354 H           1 GMY       0.0398
     50 H10        23.5102  -38.2694   -5.3438 H           1 GMY       0.0247
     51 H11        25.6229  -38.6534   -6.0495 H           1 GMY       0.0853
     52 H12        27.4122  -36.2282   -5.8824 H           1 GMY       0.0852
     53 H13        25.0345  -36.4246   -7.6595 H           1 GMY       0.0741
     54 H14        24.9579  -34.1863   -7.6338 H           1 GMY       0.0436
     55 H15        26.6767  -34.0942   -5.4668 H           1 GMY       0.0539
     56 H16        28.1757  -31.2086   -4.1612 H           1 GMY       0.2392
     57 H17        21.4339  -33.0663   -0.9004 H           1 GMY       0.0581
     58 H18        23.0733  -33.7378   -0.9609 H           1 GMY       0.0581
     59 H19        21.9924  -33.8890   -2.3585 H           1 GMY       0.0581
     60 H20        21.2406  -31.2077   -7.1621 H           1 GMY       0.0234
     61 H21        20.1595  -32.3018   -6.2924 H           1 GMY       0.0234
     62 H22        21.0732  -32.8632   -7.7100 H           1 GMY       0.0234
     63 H23        19.8250  -35.7792   -8.5751 H           1 GMY       0.0524
     64 H24        20.5486  -37.1014   -7.6534 H           1 GMY       0.0524
     65 H25        21.5847  -35.9587   -8.5480 H           1 GMY       0.0524
     66 H26        19.5934  -35.9854   -4.7511 H           1 GMY       0.2101
     67 H27        22.9092  -38.4042   -2.2810 H           1 GMY       0.0247
     68 H28        21.6785  -38.9400   -3.4475 H           1 GMY       0.0247
     69 H29        21.3183  -37.6514   -2.2874 H           1 GMY       0.0247
     70 H30        25.2029  -36.5656   -2.5848 H           1 GMY       0.0376
     71 H31        25.0719  -35.2635   -3.7889 H           1 GMY       0.0376
     72 H32        26.5894  -36.1230   -3.5659 H           1 GMY       0.0376
     73 H33        29.5345  -40.2043   -3.6761 H           1 GMY       0.1831
     74 H34        28.3043  -39.5252   -2.7461 H           1 GMY       0.1831
     75 H35        27.9279  -38.6665   -9.0689 H           1 GMY       0.0527
     76 H36        26.3500  -37.8719   -9.0964 H           1 GMY       0.0527
     77 H37        26.6574  -39.2410   -7.9933 H           1 GMY       0.0527
     78 H38        26.3610  -32.7438   -8.8506 H           1 GMY       0.0384
     79 H39        27.9321  -32.0020   -8.6343 H           1 GMY       0.0384
     80 H40        26.4664  -31.1333   -8.1577 H           1 GMY       0.0384
@<TRIPOS>BOND
     1     1     2   1
     2     1     6   2
     3     1     7   1
     4     2     3   1
     5     2    23   2
     6     3     4   2
     7     3    22   1
     8     4     5   1
     9     5     6   1
    10     5    24   2
    11     6    25   1
    12     7     8   1
    13     8     9   1
    14     8    27   1
    15     9    10   1
    16    10    11   1
    17    10    28   1
    18    11    12   1
    19    11    30   1
    20    12    13   1
    21    12    31   1
    22    13    14   2
    23    14    15   1
    24    14    32   1
    25    15    16   1
    26    15    33   1
    27    16    17   1
    28    16    37   1
    29    17    18   2
    30    18    19   1
    31    19    20   2
    32    20    21   1
    33    20    39   1
    34    21    22  am
    35    21    40   2
    36    25    26   1
    37    28    29   1
    38    33    34   1
    39    34    35   2
    40    34    36  am
    41    37    38   1
    42     4    41   1
    43     7    42   1
    44     7    43   1
    45     8    44   1
    46     9    45   1
    47     9    46   1
    48    10    47   1
    49    11    48   1
    50    12    49   1
    51    13    50   1
    52    15    51   1
    53    16    52   1
    54    17    53   1
    55    18    54   1
    56    19    55   1
    57    22    56   1
    58    26    57   1
    59    26    58   1
    60    26    59   1
    61    27    60   1
    62    27    61   1
    63    27    62   1
    64    29    63   1
    65    29    64   1
    66    29    65   1
    67    30    66   1
    68    31    67   1
    69    31    68   1
    70    31    69   1
    71    32    70   1
    72    32    71   1
    73    32    72   1
    74    36    73   1
    75    36    74   1
    76    38    75   1
    77    38    76   1
    78    38    77   1
    79    39    78   1
    80    39    79   1
    81    39    80   1
@<TRIPOS>SUBSTRUCTURE
     1  GMY      1

