@<TRIPOS>MOLECULE
2yge_ligand_044
    80    81
SMALL
GAST_HUCK
****
This file was generated by PARSER (from files_GN.cpp)

@<TRIPOS>ATOM
      1 C1         20.0067  -34.0780   -1.1565 C.2         1 GMY       0.0496
      2 C2         21.3933  -33.9395   -1.2369 C.2         1 GMY       0.1905
      3 C3         22.2194  -35.0186   -1.5271 C.2         1 GMY       0.1367
      4 C4         21.6606  -36.2405   -1.6759 C.2         1 GMY       0.0078
      5 C5         20.3099  -36.4096   -1.5873 C.2         1 GMY       0.1522
      6 C6         19.4973  -35.3341   -1.3049 C.2         1 GMY       0.1484
      7 C7         19.1289  -32.9105   -0.9127 C.3         1 GMY      -0.0163
      8 C8         18.9304  -31.9870   -2.1570 C.3         1 GMY      -0.0344
      9 C9         18.1193  -32.7335   -3.2724 C.3         1 GMY      -0.0200
     10 C10        18.0618  -32.0822   -4.6887 C.3         1 GMY       0.0859
     11 C11        17.2746  -32.9602   -5.7227 C.3         1 GMY       0.0868
     12 C12        18.0169  -34.2415   -6.2341 C.3         1 GMY      -0.0094
     13 C13        19.2671  -33.9128   -6.9254 C.2         1 GMY      -0.1006
     14 C14        20.4658  -34.5317   -6.8242 C.2         1 GMY      -0.0457
     15 C15        21.5789  -34.1326   -7.7139 C.3         1 GMY       0.1504
     16 C16        22.8077  -33.5048   -6.9733 C.3         1 GMY       0.1288
     17 C17        22.3972  -32.3672   -6.1399 C.2         1 GMY      -0.0424
     18 C18        22.5411  -32.2591   -4.8059 C.2         1 GMY      -0.0729
     19 C19        23.0765  -33.2062   -3.9969 C.2         1 GMY      -0.0656
     20 C20        23.9547  -33.0121   -2.9849 C.2         1 GMY       0.0245
     21 C21        24.3443  -34.0820   -2.2267 C.2         1 GMY       0.2316
     22 N22        23.5555  -34.9718   -1.6322 N.am        1 GMY      -0.2158
     23 O23        21.9061  -32.8943   -0.8597 O.2         1 GMY      -0.3575
     24 O24        19.8453  -37.5326   -1.7787 O.2         1 GMY      -0.3865
     25 O25        18.1711  -35.5491   -1.2978 O.3         1 GMY      -0.3151
     26 C26        17.5994  -35.4421    0.0237 C.3         1 GMY       0.0602
     27 C27        18.2425  -30.6541   -1.7197 C.3         1 GMY      -0.0609
     28 O28        17.6328  -30.6992   -4.6685 O.3         1 GMY      -0.3771
     29 C29        16.3791  -30.3325   -4.0721 C.3         1 GMY       0.0369
     30 O30        16.0196  -33.3611   -5.1744 O.3         1 GMY      -0.3877
     31 C31        17.1332  -35.0681   -7.2081 C.3         1 GMY      -0.0567
     32 C32        20.6726  -35.6359   -5.8831 C.3         1 GMY      -0.0373
     33 O33        21.8564  -35.2673   -8.5592 O.3         1 GMY      -0.2436
     34 C34        22.9621  -35.9861   -8.8865 C.2         1 GMY       0.3194
     35 O35        24.1956  -35.7455   -8.3899 O.2         1 GMY      -0.3776
     36 N36        22.8079  -37.0000   -9.7460 N.am        1 GMY      -0.2762
     37 O37        23.7630  -33.1027   -7.9857 O.3         1 GMY      -0.3598
     38 C38        24.9489  -32.4276   -7.5271 C.3         1 GMY       0.0406
     39 C39        24.5526  -31.7188   -2.6494 C.3         1 GMY      -0.0273
     40 O40        25.5337  -34.3675   -2.2059 O.2         1 GMY      -0.3753
     41 H1         22.2356  -37.0261   -1.8822 H           1 GMY       0.0327
     42 H2         19.5564  -32.3317   -0.0890 H           1 GMY       0.0392
     43 H3         18.1306  -33.2010   -0.5832 H           1 GMY       0.0392
     44 H4         19.9203  -31.7455   -2.5592 H           1 GMY       0.0317
     45 H5         17.1077  -32.9138   -2.9007 H           1 GMY       0.0295
     46 H6         18.5710  -33.7134   -3.4059 H           1 GMY       0.0295
     47 H7         19.0996  -32.0148   -5.0252 H           1 GMY       0.0623
     48 H8         17.0496  -32.3318   -6.5789 H           1 GMY       0.0637
     49 H9         18.2017  -34.8812   -5.3706 H           1 GMY       0.0398
     50 H10        19.1927  -33.1867   -7.5987 H           1 GMY       0.0247
     51 H11        21.2502  -33.3679   -8.4269 H           1 GMY       0.0853
     52 H12        23.2689  -34.2935   -6.3759 H           1 GMY       0.0852
     53 H13        21.9785  -31.5968   -6.6127 H           1 GMY       0.0741
     54 H14        22.1940  -31.4336   -4.3750 H           1 GMY       0.0436
     55 H15        22.7478  -34.1300   -4.1487 H           1 GMY       0.0539
     56 H16        24.0065  -35.7700   -1.3213 H           1 GMY       0.2392
     57 H17        16.5154  -35.5021   -0.1118 H           1 GMY       0.0581
     58 H18        17.8436  -34.4861    0.5163 H           1 GMY       0.0581
     59 H19        17.9103  -36.2780    0.6702 H           1 GMY       0.0581
     60 H20        18.6833  -30.2492   -0.8070 H           1 GMY       0.0234
     61 H21        17.1753  -30.8026   -1.5310 H           1 GMY       0.0234
     62 H22        18.3683  -29.8904   -2.4864 H           1 GMY       0.0234
     63 H23        16.4024  -29.2674   -3.8347 H           1 GMY       0.0524
     64 H24        16.1748  -30.8866   -3.1515 H           1 GMY       0.0524
     65 H25        15.5840  -30.5124   -4.7928 H           1 GMY       0.0524
     66 H26        15.3635  -32.6913   -5.4483 H           1 GMY       0.2101
     67 H27        17.6592  -35.9640   -7.5465 H           1 GMY       0.0247
     68 H28        16.8613  -34.4746   -8.0822 H           1 GMY       0.0247
     69 H29        16.2174  -35.3940   -6.7144 H           1 GMY       0.0247
     70 H30        19.9717  -36.4425   -6.1057 H           1 GMY       0.0376
     71 H31        20.5108  -35.2915   -4.8593 H           1 GMY       0.0376
     72 H32        21.6796  -36.0560   -5.9345 H           1 GMY       0.0376
     73 H33        23.5732  -37.5380  -10.0044 H           1 GMY       0.1831
     74 H34        21.9284  -37.1925  -10.1110 H           1 GMY       0.1831
     75 H35        25.6018  -32.2602   -8.3858 H           1 GMY       0.0527
     76 H36        25.4913  -33.0326   -6.7957 H           1 GMY       0.0527
     77 H37        24.7013  -31.4584   -7.0901 H           1 GMY       0.0527
     78 H38        24.2672  -30.9208   -3.3316 H           1 GMY       0.0384
     79 H39        25.6431  -31.7841   -2.6808 H           1 GMY       0.0384
     80 H40        24.2497  -31.4253   -1.6413 H           1 GMY       0.0384
@<TRIPOS>BOND
     1     1     2   1
     2     1     6   2
     3     1     7   1
     4     2     3   1
     5     2    23   2
     6     3     4   2
     7     3    22   1
     8     4     5   1
     9     5     6   1
    10     5    24   2
    11     6    25   1
    12     7     8   1
    13     8     9   1
    14     8    27   1
    15     9    10   1
    16    10    11   1
    17    10    28   1
    18    11    12   1
    19    11    30   1
    20    12    13   1
    21    12    31   1
    22    13    14   2
    23    14    15   1
    24    14    32   1
    25    15    16   1
    26    15    33   1
    27    16    17   1
    28    16    37   1
    29    17    18   2
    30    18    19   1
    31    19    20   2
    32    20    21   1
    33    20    39   1
    34    21    22  am
    35    21    40   2
    36    25    26   1
    37    28    29   1
    38    33    34   1
    39    34    35   2
    40    34    36  am
    41    37    38   1
    42     4    41   1
    43     7    42   1
    44     7    43   1
    45     8    44   1
    46     9    45   1
    47     9    46   1
    48    10    47   1
    49    11    48   1
    50    12    49   1
    51    13    50   1
    52    15    51   1
    53    16    52   1
    54    17    53   1
    55    18    54   1
    56    19    55   1
    57    22    56   1
    58    26    57   1
    59    26    58   1
    60    26    59   1
    61    27    60   1
    62    27    61   1
    63    27    62   1
    64    29    63   1
    65    29    64   1
    66    29    65   1
    67    30    66   1
    68    31    67   1
    69    31    68   1
    70    31    69   1
    71    32    70   1
    72    32    71   1
    73    32    72   1
    74    36    73   1
    75    36    74   1
    76    38    75   1
    77    38    76   1
    78    38    77   1
    79    39    78   1
    80    39    79   1
    81    39    80   1
@<TRIPOS>SUBSTRUCTURE
     1  GMY      1

