@<TRIPOS>MOLECULE
2yge_ligand_038
    80    81
SMALL
GAST_HUCK
****
This file was generated by PARSER (from files_GN.cpp)

@<TRIPOS>ATOM
      1 C1         27.5175  -33.3582   -8.2491 C.2         1 GMY       0.0496
      2 C2         27.9300  -32.2294   -8.9396 C.2         1 GMY       0.1905
      3 C3         27.1062  -31.1258   -9.0352 C.2         1 GMY       0.1367
      4 C4         25.8321  -31.2251   -8.5984 C.2         1 GMY       0.0078
      5 C5         25.3579  -32.3925   -8.0702 C.2         1 GMY       0.1522
      6 C6         26.2050  -33.4659   -7.8955 C.2         1 GMY       0.1484
      7 C7         28.5304  -34.2269   -7.6353 C.3         1 GMY      -0.0163
      8 C8         28.9479  -33.6999   -6.2069 C.3         1 GMY      -0.0344
      9 C9         28.4891  -34.6679   -5.0709 C.3         1 GMY      -0.0200
     10 C10        28.4787  -34.0846   -3.6116 C.3         1 GMY       0.0859
     11 C11        27.0729  -34.0833   -2.9128 C.3         1 GMY       0.0868
     12 C12        26.0835  -32.9473   -3.3586 C.3         1 GMY      -0.0094
     13 C13        26.6150  -31.6032   -3.0730 C.2         1 GMY      -0.1006
     14 C14        26.4576  -30.4702   -3.8000 C.2         1 GMY      -0.0457
     15 C15        26.9821  -29.1832   -3.2958 C.3         1 GMY       0.1504
     16 C16        28.0134  -28.4871   -4.2433 C.3         1 GMY       0.1288
     17 C17        29.1481  -29.3630   -4.5507 C.2         1 GMY      -0.0424
     18 C18        29.5369  -29.7924   -5.7675 C.2         1 GMY      -0.0729
     19 C19        28.8873  -29.5594   -6.9425 C.2         1 GMY      -0.0656
     20 C20        29.4175  -29.4440   -8.1837 C.2         1 GMY       0.0245
     21 C21        28.5644  -29.2207   -9.2322 C.2         1 GMY       0.2316
     22 N22        27.4946  -29.9495   -9.5491 N.am        1 GMY      -0.2158
     23 O23        28.9268  -32.2752   -9.6516 O.2         1 GMY      -0.3575
     24 O24        24.2199  -32.4116   -7.6119 O.2         1 GMY      -0.3865
     25 O25        25.7507  -34.5255   -7.2037 O.3         1 GMY      -0.3151
     26 C26        25.2596  -35.6022   -8.0233 C.3         1 GMY       0.0602
     27 C27        30.4710  -33.3933   -6.1484 C.3         1 GMY      -0.0609
     28 O28        29.3299  -34.8674   -2.7424 O.3         1 GMY      -0.3771
     29 C29        30.7446  -34.6231   -2.7593 C.3         1 GMY       0.0369
     30 O30        26.4721  -35.3805   -2.9986 O.3         1 GMY      -0.3877
     31 C31        24.7087  -33.0745   -2.6327 C.3         1 GMY      -0.0567
     32 C32        25.7102  -30.4852   -5.0513 C.3         1 GMY      -0.0373
     33 O33        25.8927  -28.2664   -3.0796 O.3         1 GMY      -0.2436
     34 C34        25.0211  -28.2446   -2.0320 C.2         1 GMY       0.3194
     35 O35        25.0991  -29.1401   -1.0194 O.2         1 GMY      -0.3776
     36 N36        24.0514  -27.3224   -2.0119 N.am        1 GMY      -0.2762
     37 O37        28.4539  -27.2728   -3.5881 O.3         1 GMY      -0.3598
     38 C38        28.9469  -26.2082   -4.4266 C.3         1 GMY       0.0406
     39 C39        30.8496  -29.4679   -8.4840 C.3         1 GMY      -0.0273
     40 O40        28.6555  -28.1551   -9.8249 O.2         1 GMY      -0.3753
     41 H1         25.2553  -30.4135   -8.5881 H           1 GMY       0.0327
     42 H2         29.4040  -34.3058   -8.2887 H           1 GMY       0.0392
     43 H3         28.1609  -35.2539   -7.5801 H           1 GMY       0.0392
     44 H4         28.4476  -32.7447   -6.0137 H           1 GMY       0.0317
     45 H5         29.1132  -35.5628   -5.1015 H           1 GMY       0.0295
     46 H6         27.4847  -34.9989   -5.3156 H           1 GMY       0.0295
     47 H7         28.8430  -33.0505   -3.6192 H           1 GMY       0.0623
     48 H8         27.2370  -33.9403   -1.8423 H           1 GMY       0.0637
     49 H9         25.9043  -33.0796   -4.4257 H           1 GMY       0.0398
     50 H10        27.0498  -31.5097   -2.1822 H           1 GMY       0.0247
     51 H11        27.4814  -29.3005   -2.3290 H           1 GMY       0.0853
     52 H12        27.4778  -28.1697   -5.1440 H           1 GMY       0.0852
     53 H13        29.7082  -29.6386   -3.7785 H           1 GMY       0.0741
     54 H14        30.3455  -30.3740   -5.7948 H           1 GMY       0.0436
     55 H15        27.9001  -29.5051   -6.8682 H           1 GMY       0.0539
     56 H16        26.8575  -29.5210  -10.1476 H           1 GMY       0.2392
     57 H17        24.9205  -36.4016   -7.3629 H           1 GMY       0.0581
     58 H18        26.0434  -36.0051   -8.6694 H           1 GMY       0.0581
     59 H19        24.4115  -35.2869   -8.6360 H           1 GMY       0.0581
     60 H20        30.7446  -32.7042   -6.9500 H           1 GMY       0.0234
     61 H21        31.0520  -34.3108   -6.2638 H           1 GMY       0.0234
     62 H22        30.7365  -32.9228   -5.2012 H           1 GMY       0.0234
     63 H23        31.1972  -35.2252   -1.9696 H           1 GMY       0.0524
     64 H24        30.9629  -33.5713   -2.5597 H           1 GMY       0.0524
     65 H25        31.1850  -34.9204   -3.7123 H           1 GMY       0.0524
     66 H26        25.9302  -35.3885   -3.8155 H           1 GMY       0.2101
     67 H27        24.0273  -32.2773   -2.9435 H           1 GMY       0.0247
     68 H28        24.8318  -33.0136   -1.5468 H           1 GMY       0.0247
     69 H29        24.2322  -34.0273   -2.8741 H           1 GMY       0.0247
     70 H30        24.7068  -30.8896   -4.9048 H           1 GMY       0.0376
     71 H31        26.2451  -31.1013   -5.7714 H           1 GMY       0.0376
     72 H32        25.5907  -29.4925   -5.4834 H           1 GMY       0.0376
     73 H33        23.4160  -27.3056   -1.2792 H           1 GMY       0.1831
     74 H34        23.9807  -26.6733   -2.7298 H           1 GMY       0.1831
     75 H35        29.1441  -25.3408   -3.7941 H           1 GMY       0.0527
     76 H36        28.2141  -25.9241   -5.1872 H           1 GMY       0.0527
     77 H37        29.8826  -26.4938   -4.9100 H           1 GMY       0.0527
     78 H38        31.4788  -29.5949   -7.6058 H           1 GMY       0.0384
     79 H39        31.1455  -28.5294   -8.9556 H           1 GMY       0.0384
     80 H40        31.0657  -30.2877   -9.1708 H           1 GMY       0.0384
@<TRIPOS>BOND
     1     1     2   1
     2     1     6   2
     3     1     7   1
     4     2     3   1
     5     2    23   2
     6     3     4   2
     7     3    22   1
     8     4     5   1
     9     5     6   1
    10     5    24   2
    11     6    25   1
    12     7     8   1
    13     8     9   1
    14     8    27   1
    15     9    10   1
    16    10    11   1
    17    10    28   1
    18    11    12   1
    19    11    30   1
    20    12    13   1
    21    12    31   1
    22    13    14   2
    23    14    15   1
    24    14    32   1
    25    15    16   1
    26    15    33   1
    27    16    17   1
    28    16    37   1
    29    17    18   2
    30    18    19   1
    31    19    20   2
    32    20    21   1
    33    20    39   1
    34    21    22  am
    35    21    40   2
    36    25    26   1
    37    28    29   1
    38    33    34   1
    39    34    35   2
    40    34    36  am
    41    37    38   1
    42     4    41   1
    43     7    42   1
    44     7    43   1
    45     8    44   1
    46     9    45   1
    47     9    46   1
    48    10    47   1
    49    11    48   1
    50    12    49   1
    51    13    50   1
    52    15    51   1
    53    16    52   1
    54    17    53   1
    55    18    54   1
    56    19    55   1
    57    22    56   1
    58    26    57   1
    59    26    58   1
    60    26    59   1
    61    27    60   1
    62    27    61   1
    63    27    62   1
    64    29    63   1
    65    29    64   1
    66    29    65   1
    67    30    66   1
    68    31    67   1
    69    31    68   1
    70    31    69   1
    71    32    70   1
    72    32    71   1
    73    32    72   1
    74    36    73   1
    75    36    74   1
    76    38    75   1
    77    38    76   1
    78    38    77   1
    79    39    78   1
    80    39    79   1
    81    39    80   1
@<TRIPOS>SUBSTRUCTURE
     1  GMY      1

