@<TRIPOS>MOLECULE
2yge_ligand_051
    80    81
SMALL
GAST_HUCK
****
This file was generated by PARSER (from files_GN.cpp)

@<TRIPOS>ATOM
      1 C1         23.1695  -34.2108   -2.8813 C.2         1 GMY       0.0496
      2 C2         23.6749  -35.1408   -3.7851 C.2         1 GMY       0.1905
      3 C3         23.1231  -35.2770   -5.0473 C.2         1 GMY       0.1367
      4 C4         21.9529  -34.6521   -5.3106 C.2         1 GMY       0.0078
      5 C5         21.3770  -33.8203   -4.3912 C.2         1 GMY       0.1522
      6 C6         21.9828  -33.6067   -3.1712 C.2         1 GMY       0.1484
      7 C7         23.9220  -33.9162   -1.6487 C.3         1 GMY      -0.0163
      8 C8         25.2137  -33.0578   -1.8744 C.3         1 GMY      -0.0344
      9 C9         24.8583  -31.5488   -2.1184 C.3         1 GMY      -0.0200
     10 C10        26.0200  -30.5732   -2.5127 C.3         1 GMY       0.0859
     11 C11        25.4945  -29.1925   -3.0758 C.3         1 GMY       0.0868
     12 C12        24.9256  -29.2410   -4.5384 C.3         1 GMY      -0.0094
     13 C13        25.9627  -29.6429   -5.4942 C.2         1 GMY      -0.1006
     14 C14        25.8438  -30.5084   -6.5267 C.2         1 GMY      -0.0457
     15 C15        26.9952  -30.7401   -7.4230 C.3         1 GMY       0.1504
     16 C16        27.4977  -32.2189   -7.4518 C.3         1 GMY       0.1288
     17 C17        27.8192  -32.7221   -6.1088 C.2         1 GMY      -0.0424
     18 C18        27.2356  -33.7388   -5.4469 C.2         1 GMY      -0.0729
     19 C19        26.1810  -34.4656   -5.8925 C.2         1 GMY      -0.0656
     20 C20        26.0220  -35.8059   -5.8064 C.2         1 GMY       0.0245
     21 C21        24.8855  -36.3626   -6.3324 C.2         1 GMY       0.2316
     22 N22        23.6272  -36.0535   -6.0266 N.am        1 GMY      -0.2158
     23 O23        24.3493  -36.0713   -3.3606 O.2         1 GMY      -0.3575
     24 O24        20.3431  -33.2360   -4.6848 O.2         1 GMY      -0.3865
     25 O25        21.4304  -32.7100   -2.3297 O.3         1 GMY      -0.3151
     26 C26        20.6080  -33.3015   -1.3029 C.3         1 GMY       0.0602
     27 C27        26.1856  -33.2744   -0.6835 C.3         1 GMY      -0.0609
     28 O28        26.8541  -30.3694   -1.3470 O.3         1 GMY      -0.3771
     29 C29        27.8052  -29.2780   -1.3718 C.3         1 GMY       0.0369
     30 O30        24.5721  -28.5959   -2.1438 O.3         1 GMY      -0.3877
     31 C31        24.3633  -27.8667   -4.9696 C.3         1 GMY      -0.0567
     32 C32        24.5687  -31.1709   -6.7967 C.3         1 GMY      -0.0373
     33 O33        26.5835  -30.3201   -8.7337 O.3         1 GMY      -0.2436
     34 C34        27.2135  -29.4893   -9.6046 C.2         1 GMY       0.3194
     35 O35        28.4435  -28.9841   -9.3659 O.2         1 GMY      -0.3776
     36 N36        26.5736  -29.1384  -10.7306 N.am        1 GMY      -0.2762
     37 O37        28.5775  -32.4236   -8.3953 O.3         1 GMY      -0.3598
     38 C38        29.8872  -31.8709   -8.1643 C.3         1 GMY       0.0406
     39 C39        27.0166  -36.7280   -5.2505 C.3         1 GMY      -0.0273
     40 O40        25.0165  -37.0966   -7.3031 O.2         1 GMY      -0.3753
     41 H1         21.5157  -34.7660   -6.1963 H           1 GMY       0.0327
     42 H2         24.1809  -34.8683   -1.1800 H           1 GMY       0.0392
     43 H3         23.3021  -33.4079   -0.9086 H           1 GMY       0.0392
     44 H4         25.7293  -33.4248   -2.7665 H           1 GMY       0.0317
     45 H5         24.3569  -31.1554   -1.2291 H           1 GMY       0.0295
     46 H6         24.1265  -31.5331   -2.9283 H           1 GMY       0.0295
     47 H7         26.6247  -31.0725   -3.2784 H           1 GMY       0.0623
     48 H8         26.3330  -28.4936   -3.1107 H           1 GMY       0.0637
     49 H9         24.0840  -29.9337   -4.5380 H           1 GMY       0.0398
     50 H10        26.8283  -29.1580   -5.3878 H           1 GMY       0.0247
     51 H11        27.8503  -30.1310   -7.1177 H           1 GMY       0.0853
     52 H12        26.6998  -32.8170   -7.8895 H           1 GMY       0.0852
     53 H13        28.5417  -32.2413   -5.6220 H           1 GMY       0.0741
     54 H14        27.5738  -33.9406   -4.5331 H           1 GMY       0.0436
     55 H15        25.4460  -33.9410   -6.3079 H           1 GMY       0.0539
     56 H16        22.9680  -36.3953   -6.6518 H           1 GMY       0.2392
     57 H17        20.2223  -32.5018   -0.6700 H           1 GMY       0.0581
     58 H18        21.1828  -33.9854   -0.6720 H           1 GMY       0.0581
     59 H19        19.7547  -33.8346   -1.7311 H           1 GMY       0.0581
     60 H20        26.4172  -34.3353   -0.5694 H           1 GMY       0.0234
     61 H21        25.7531  -32.9086    0.2480 H           1 GMY       0.0234
     62 H22        27.1230  -32.7610   -0.8595 H           1 GMY       0.0234
     63 H23        28.5570  -29.4480   -0.6017 H           1 GMY       0.0524
     64 H24        27.2956  -28.3370   -1.1265 H           1 GMY       0.0524
     65 H25        28.3113  -29.1777   -2.3459 H           1 GMY       0.0524
     66 H26        24.7413  -29.0504   -1.2893 H           1 GMY       0.2101
     67 H27        23.9768  -27.9287   -5.9874 H           1 GMY       0.0247
     68 H28        25.1468  -27.1042   -4.9279 H           1 GMY       0.0247
     69 H29        23.5438  -27.5664   -4.3114 H           1 GMY       0.0247
     70 H30        23.7886  -30.4259   -6.9552 H           1 GMY       0.0376
     71 H31        24.2896  -31.8047   -5.9548 H           1 GMY       0.0376
     72 H32        24.6052  -31.7968   -7.6850 H           1 GMY       0.0376
     73 H33        26.9977  -28.5468  -11.3755 H           1 GMY       0.1831
     74 H34        25.6586  -29.4333  -10.8715 H           1 GMY       0.1831
     75 H35        30.5155  -32.1125   -9.0235 H           1 GMY       0.0527
     76 H36        30.3480  -32.3112   -7.2774 H           1 GMY       0.0527
     77 H37        29.8568  -30.7857   -8.0586 H           1 GMY       0.0527
     78 H38        27.8994  -36.2306   -4.8483 H           1 GMY       0.0384
     79 H39        27.3610  -37.4177   -6.0250 H           1 GMY       0.0384
     80 H40        26.5727  -37.3112   -4.4403 H           1 GMY       0.0384
@<TRIPOS>BOND
     1     1     2   1
     2     1     6   2
     3     1     7   1
     4     2     3   1
     5     2    23   2
     6     3     4   2
     7     3    22   1
     8     4     5   1
     9     5     6   1
    10     5    24   2
    11     6    25   1
    12     7     8   1
    13     8     9   1
    14     8    27   1
    15     9    10   1
    16    10    11   1
    17    10    28   1
    18    11    12   1
    19    11    30   1
    20    12    13   1
    21    12    31   1
    22    13    14   2
    23    14    15   1
    24    14    32   1
    25    15    16   1
    26    15    33   1
    27    16    17   1
    28    16    37   1
    29    17    18   2
    30    18    19   1
    31    19    20   2
    32    20    21   1
    33    20    39   1
    34    21    22  am
    35    21    40   2
    36    25    26   1
    37    28    29   1
    38    33    34   1
    39    34    35   2
    40    34    36  am
    41    37    38   1
    42     4    41   1
    43     7    42   1
    44     7    43   1
    45     8    44   1
    46     9    45   1
    47     9    46   1
    48    10    47   1
    49    11    48   1
    50    12    49   1
    51    13    50   1
    52    15    51   1
    53    16    52   1
    54    17    53   1
    55    18    54   1
    56    19    55   1
    57    22    56   1
    58    26    57   1
    59    26    58   1
    60    26    59   1
    61    27    60   1
    62    27    61   1
    63    27    62   1
    64    29    63   1
    65    29    64   1
    66    29    65   1
    67    30    66   1
    68    31    67   1
    69    31    68   1
    70    31    69   1
    71    32    70   1
    72    32    71   1
    73    32    72   1
    74    36    73   1
    75    36    74   1
    76    38    75   1
    77    38    76   1
    78    38    77   1
    79    39    78   1
    80    39    79   1
    81    39    80   1
@<TRIPOS>SUBSTRUCTURE
     1  GMY      1

