@<TRIPOS>MOLECULE
2yge_ligand_030
    80    81
SMALL
GAST_HUCK
****
This file was generated by PARSER (from files_GN.cpp)

@<TRIPOS>ATOM
      1 C1         24.4250  -37.8280   -5.9985 C.2         1 GMY       0.0496
      2 C2         24.9301  -37.0907   -7.0676 C.2         1 GMY       0.1905
      3 C3         24.2457  -37.0090   -8.2714 C.2         1 GMY       0.1367
      4 C4         23.2491  -37.8964   -8.4962 C.2         1 GMY       0.0078
      5 C5         22.8322  -38.7516   -7.5169 C.2         1 GMY       0.1522
      6 C6         23.3393  -38.6213   -6.2371 C.2         1 GMY       0.1484
      7 C7         25.0861  -37.7758   -4.6700 C.3         1 GMY      -0.0163
      8 C8         25.0012  -36.3941   -3.9142 C.3         1 GMY      -0.0344
      9 C9         24.5341  -36.5585   -2.4233 C.3         1 GMY      -0.0200
     10 C10        24.1365  -35.2374   -1.6595 C.3         1 GMY       0.0859
     11 C11        22.6519  -35.2023   -1.1602 C.3         1 GMY       0.0868
     12 C12        21.5498  -35.1203   -2.2727 C.3         1 GMY      -0.0094
     13 C13        21.6247  -33.8423   -2.9882 C.2         1 GMY      -0.1006
     14 C14        21.5034  -33.6198   -4.3182 C.2         1 GMY      -0.0457
     15 C15        21.5239  -32.2350   -4.8237 C.3         1 GMY       0.1504
     16 C16        22.6278  -31.9113   -5.8776 C.3         1 GMY       0.1288
     17 C17        23.9628  -32.3692   -5.4510 C.2         1 GMY      -0.0424
     18 C18        24.8000  -33.1957   -6.1089 C.2         1 GMY      -0.0729
     19 C19        24.5314  -33.8777   -7.2534 C.2         1 GMY      -0.0656
     20 C20        25.4214  -34.1875   -8.2261 C.2         1 GMY       0.0245
     21 C21        25.0170  -34.9341   -9.2874 C.2         1 GMY       0.2316
     22 N22        24.4842  -36.1441   -9.2713 N.am        1 GMY      -0.2158
     23 O23        26.1332  -36.8803   -7.1233 O.2         1 GMY      -0.3575
     24 O24        22.0044  -39.6196   -7.7784 O.2         1 GMY      -0.3865
     25 O25        22.8004  -39.3749   -5.2578 O.3         1 GMY      -0.3151
     26 C26        21.4628  -38.9944   -4.8645 C.3         1 GMY       0.0602
     27 C27        26.3528  -35.6321   -4.0053 C.3         1 GMY      -0.0609
     28 O28        24.9247  -35.0560   -0.4528 O.3         1 GMY      -0.3771
     29 C29        26.1074  -34.2429   -0.5209 C.3         1 GMY       0.0369
     30 O30        22.4375  -36.3262   -0.3039 O.3         1 GMY      -0.3877
     31 C31        20.1226  -35.2826   -1.6829 C.3         1 GMY      -0.0567
     32 C32        21.2510  -34.7070   -5.2621 C.3         1 GMY      -0.0373
     33 O33        20.2352  -31.8808   -5.3579 O.3         1 GMY      -0.2436
     34 C34        19.0517  -31.8516   -4.6797 C.2         1 GMY       0.3194
     35 O35        18.9571  -32.1637   -3.3629 O.2         1 GMY      -0.3776
     36 N36        17.9301  -31.4636   -5.3131 N.am        1 GMY      -0.2762
     37 O37        22.5306  -30.4824   -6.1172 O.3         1 GMY      -0.3598
     38 C38        23.6766  -29.6086   -6.1333 C.3         1 GMY       0.0406
     39 C39        26.8154  -33.7294   -8.2040 C.3         1 GMY      -0.0273
     40 O40        25.0227  -34.3938  -10.3819 O.2         1 GMY      -0.3753
     41 H1         22.7745  -37.9146   -9.3683 H           1 GMY       0.0327
     42 H2         26.1315  -38.0718   -4.8069 H           1 GMY       0.0392
     43 H3         24.6901  -38.5564   -4.0163 H           1 GMY       0.0392
     44 H4         24.2466  -35.7793   -4.4046 H           1 GMY       0.0317
     45 H5         25.3211  -37.0699   -1.8663 H           1 GMY       0.0295
     46 H6         23.6772  -37.2367   -2.4081 H           1 GMY       0.0295
     47 H7         24.2711  -34.3661   -2.3115 H           1 GMY       0.0623
     48 H8         22.5353  -34.3217   -0.5196 H           1 GMY       0.0637
     49 H9         21.7117  -35.9541   -2.9512 H           1 GMY       0.0398
     50 H10        21.6946  -33.0444   -2.4013 H           1 GMY       0.0247
     51 H11        21.7167  -31.5330   -4.0111 H           1 GMY       0.0853
     52 H12        22.3464  -32.3711   -6.8263 H           1 GMY       0.0852
     53 H13        24.2929  -31.9952   -4.5827 H           1 GMY       0.0741
     54 H14        25.6947  -33.3305   -5.6955 H           1 GMY       0.0436
     55 H15        23.6046  -34.2095   -7.3610 H           1 GMY       0.0539
     56 H16        24.1333  -36.4296  -10.1306 H           1 GMY       0.2392
     57 H17        21.1654  -39.6247   -4.0160 H           1 GMY       0.0581
     58 H18        20.7537  -39.1592   -5.6858 H           1 GMY       0.0581
     59 H19        21.4257  -37.9452   -4.5474 H           1 GMY       0.0581
     60 H20        26.6557  -35.5107   -5.0409 H           1 GMY       0.0234
     61 H21        27.1371  -36.1806   -3.4873 H           1 GMY       0.0234
     62 H22        26.2769  -34.6396   -3.5689 H           1 GMY       0.0234
     63 H23        26.5184  -34.1671    0.4886 H           1 GMY       0.0524
     64 H24        25.8775  -33.2327   -0.8758 H           1 GMY       0.0524
     65 H25        26.8587  -34.7048   -1.1655 H           1 GMY       0.0524
     66 H26        23.0299  -36.1811    0.4677 H           1 GMY       0.2101
     67 H27        19.3679  -35.1774   -2.4590 H           1 GMY       0.0247
     68 H28        19.9339  -34.5390   -0.9105 H           1 GMY       0.0247
     69 H29        20.0025  -36.2722   -1.2444 H           1 GMY       0.0247
     70 H30        20.3519  -35.2598   -4.9732 H           1 GMY       0.0376
     71 H31        22.0973  -35.3968   -5.2871 H           1 GMY       0.0376
     72 H32        21.0936  -34.3495   -6.2821 H           1 GMY       0.0376
     73 H33        17.0795  -31.4362   -4.8333 H           1 GMY       0.1831
     74 H34        17.9618  -31.2020   -6.2518 H           1 GMY       0.1831
     75 H35        23.3297  -28.5996   -6.3753 H           1 GMY       0.0527
     76 H36        24.4039  -29.9308   -6.8851 H           1 GMY       0.0527
     77 H37        24.1451  -29.5890   -5.1435 H           1 GMY       0.0527
     78 H38        26.8812  -32.6695   -7.9164 H           1 GMY       0.0384
     79 H39        27.3121  -33.8230   -9.1817 H           1 GMY       0.0384
     80 H40        27.3946  -34.3227   -7.4842 H           1 GMY       0.0384
@<TRIPOS>BOND
     1     1     2   1
     2     1     6   2
     3     1     7   1
     4     2     3   1
     5     2    23   2
     6     3     4   2
     7     3    22   1
     8     4     5   1
     9     5     6   1
    10     5    24   2
    11     6    25   1
    12     7     8   1
    13     8     9   1
    14     8    27   1
    15     9    10   1
    16    10    11   1
    17    10    28   1
    18    11    12   1
    19    11    30   1
    20    12    13   1
    21    12    31   1
    22    13    14   2
    23    14    15   1
    24    14    32   1
    25    15    16   1
    26    15    33   1
    27    16    17   1
    28    16    37   1
    29    17    18   2
    30    18    19   1
    31    19    20   2
    32    20    21   1
    33    20    39   1
    34    21    22  am
    35    21    40   2
    36    25    26   1
    37    28    29   1
    38    33    34   1
    39    34    35   2
    40    34    36  am
    41    37    38   1
    42     4    41   1
    43     7    42   1
    44     7    43   1
    45     8    44   1
    46     9    45   1
    47     9    46   1
    48    10    47   1
    49    11    48   1
    50    12    49   1
    51    13    50   1
    52    15    51   1
    53    16    52   1
    54    17    53   1
    55    18    54   1
    56    19    55   1
    57    22    56   1
    58    26    57   1
    59    26    58   1
    60    26    59   1
    61    27    60   1
    62    27    61   1
    63    27    62   1
    64    29    63   1
    65    29    64   1
    66    29    65   1
    67    30    66   1
    68    31    67   1
    69    31    68   1
    70    31    69   1
    71    32    70   1
    72    32    71   1
    73    32    72   1
    74    36    73   1
    75    36    74   1
    76    38    75   1
    77    38    76   1
    78    38    77   1
    79    39    78   1
    80    39    79   1
    81    39    80   1
@<TRIPOS>SUBSTRUCTURE
     1  GMY      1

