@<TRIPOS>MOLECULE
2yge_ligand_028
    80    81
SMALL
GAST_HUCK
****
This file was generated by PARSER (from files_GN.cpp)

@<TRIPOS>ATOM
      1 C1         25.9957  -30.7431   -8.1883 C.2         1 GMY       0.0496
      2 C2         26.8910  -31.6355   -8.7746 C.2         1 GMY       0.1905
      3 C3         27.8466  -31.1981   -9.6713 C.2         1 GMY       0.1367
      4 C4         27.7484  -29.9388  -10.1524 C.2         1 GMY       0.0078
      5 C5         26.7525  -29.1062   -9.7345 C.2         1 GMY       0.1522
      6 C6         25.9520  -29.4635   -8.6684 C.2         1 GMY       0.1484
      7 C7         25.1150  -31.2175   -7.0973 C.3         1 GMY      -0.0163
      8 C8         25.8609  -31.5344   -5.7413 C.3         1 GMY      -0.0344
      9 C9         25.1703  -30.8570   -4.5083 C.3         1 GMY      -0.0200
     10 C10        26.0690  -30.7091   -3.2235 C.3         1 GMY       0.0859
     11 C11        26.4973  -29.2281   -2.9540 C.3         1 GMY       0.0868
     12 C12        27.4174  -28.5838   -4.0601 C.3         1 GMY      -0.0094
     13 C13        28.7922  -29.0952   -4.0419 C.2         1 GMY      -0.1006
     14 C14        29.6874  -29.0971   -5.0606 C.2         1 GMY      -0.0457
     15 C15        31.0991  -29.4554   -4.7993 C.3         1 GMY       0.1504
     16 C16        31.5467  -30.8034   -5.4621 C.3         1 GMY       0.1288
     17 C17        30.6022  -31.8908   -5.1664 C.2         1 GMY      -0.0424
     18 C18        29.8488  -32.5915   -6.0370 C.2         1 GMY      -0.0729
     19 C19        29.8002  -32.4112   -7.3840 C.2         1 GMY      -0.0656
     20 C20        29.5716  -33.3485   -8.3353 C.2         1 GMY       0.0245
     21 C21        29.5422  -32.9504   -9.6492 C.2         1 GMY       0.2316
     22 N22        28.8237  -31.9649  -10.1876 N.am        1 GMY      -0.2158
     23 O23        26.5939  -32.8233   -8.8322 O.2         1 GMY      -0.3575
     24 O24        26.5139  -28.0940  -10.3827 O.2         1 GMY      -0.3865
     25 O25        24.9953  -28.6053   -8.2358 O.3         1 GMY      -0.3151
     26 C26        25.4507  -27.3950   -7.5872 C.3         1 GMY       0.0602
     27 C27        26.0066  -33.0685   -5.5076 C.3         1 GMY      -0.0609
     28 O28        25.3636  -31.1468   -2.0354 O.3         1 GMY      -0.3771
     29 C29        25.2226  -32.5560   -1.8043 C.3         1 GMY       0.0369
     30 O30        25.3207  -28.4318   -2.7515 O.3         1 GMY      -0.3877
     31 C31        27.4235  -27.0290   -3.9636 C.3         1 GMY      -0.0567
     32 C32        29.2948  -28.7687   -6.4326 C.3         1 GMY      -0.0373
     33 O33        31.8771  -28.2845   -5.1259 O.3         1 GMY      -0.2436
     34 C34        33.0800  -28.0248   -5.6973 C.2         1 GMY       0.3194
     35 O35        33.9240  -28.9929   -6.1280 O.2         1 GMY      -0.3776
     36 N36        33.4628  -26.7486   -5.8302 N.am        1 GMY      -0.2762
     37 O37        32.8641  -31.1315   -4.9583 O.3         1 GMY      -0.3598
     38 C38        33.5492  -32.2304   -5.5938 C.3         1 GMY       0.0406
     39 C39        29.4494  -34.7891   -8.0693 C.3         1 GMY      -0.0273
     40 O40        30.3792  -33.4326  -10.3969 O.2         1 GMY      -0.3753
     41 H1         28.4137  -29.5978  -10.8063 H           1 GMY       0.0327
     42 H2         24.5728  -32.1019   -7.4470 H           1 GMY       0.0392
     43 H3         24.3229  -30.4927   -6.9091 H           1 GMY       0.0392
     44 H4         26.8786  -31.1359   -5.8017 H           1 GMY       0.0317
     45 H5         24.2599  -31.4157   -4.2745 H           1 GMY       0.0295
     46 H6         24.8229  -29.8621   -4.8047 H           1 GMY       0.0295
     47 H7         26.9906  -31.2905   -3.3234 H           1 GMY       0.0623
     48 H8         27.0353  -29.2051   -2.0006 H           1 GMY       0.0637
     49 H9         26.9773  -28.8387   -5.0175 H           1 GMY       0.0398
     50 H10        29.1104  -29.4112   -3.1568 H           1 GMY       0.0247
     51 H11        31.2741  -29.5784   -3.7256 H           1 GMY       0.0853
     52 H12        31.6304  -30.6275   -6.5355 H           1 GMY       0.0852
     53 H13        30.4865  -32.1166   -4.2042 H           1 GMY       0.0741
     54 H14        29.2301  -33.2650   -5.6475 H           1 GMY       0.0436
     55 H15        29.9071  -31.4728   -7.6934 H           1 GMY       0.0539
     56 H16        29.0873  -31.7265  -11.0901 H           1 GMY       0.2392
     57 H17        24.5704  -26.8555   -7.2233 H           1 GMY       0.0581
     58 H18        25.9908  -26.7504   -8.2926 H           1 GMY       0.0581
     59 H19        26.0926  -27.6116   -6.7316 H           1 GMY       0.0581
     60 H20        26.5373  -33.5416   -6.3341 H           1 GMY       0.0234
     61 H21        25.0233  -33.5373   -5.4144 H           1 GMY       0.0234
     62 H22        26.5720  -33.2719   -4.5961 H           1 GMY       0.0234
     63 H23        24.7043  -32.6937   -0.8560 H           1 GMY       0.0524
     64 H24        26.1974  -33.0340   -1.7297 H           1 GMY       0.0524
     65 H25        24.6396  -33.0300   -2.5924 H           1 GMY       0.0524
     66 H26        24.5567  -29.0365   -2.6400 H           1 GMY       0.2101
     67 H27        28.1222  -26.5764   -4.6665 H           1 GMY       0.0247
     68 H28        27.6939  -26.7052   -2.9588 H           1 GMY       0.0247
     69 H29        26.4326  -26.6348   -4.1960 H           1 GMY       0.0247
     70 H30        28.8978  -27.7587   -6.4912 H           1 GMY       0.0376
     71 H31        28.5327  -29.4663   -6.7751 H           1 GMY       0.0376
     72 H32        30.1290  -28.8247   -7.1346 H           1 GMY       0.0376
     73 H33        34.3400  -26.5388   -6.1886 H           1 GMY       0.1831
     74 H34        32.8774  -26.0255   -5.5424 H           1 GMY       0.1831
     75 H35        34.5479  -32.3060   -5.1634 H           1 GMY       0.0527
     76 H36        33.6570  -32.0617   -6.6679 H           1 GMY       0.0527
     77 H37        33.0245  -33.1741   -5.4244 H           1 GMY       0.0527
     78 H38        29.5134  -35.0542   -7.0152 H           1 GMY       0.0384
     79 H39        30.2469  -35.3352   -8.5781 H           1 GMY       0.0384
     80 H40        28.4899  -35.1519   -8.4426 H           1 GMY       0.0384
@<TRIPOS>BOND
     1     1     2   1
     2     1     6   2
     3     1     7   1
     4     2     3   1
     5     2    23   2
     6     3     4   2
     7     3    22   1
     8     4     5   1
     9     5     6   1
    10     5    24   2
    11     6    25   1
    12     7     8   1
    13     8     9   1
    14     8    27   1
    15     9    10   1
    16    10    11   1
    17    10    28   1
    18    11    12   1
    19    11    30   1
    20    12    13   1
    21    12    31   1
    22    13    14   2
    23    14    15   1
    24    14    32   1
    25    15    16   1
    26    15    33   1
    27    16    17   1
    28    16    37   1
    29    17    18   2
    30    18    19   1
    31    19    20   2
    32    20    21   1
    33    20    39   1
    34    21    22  am
    35    21    40   2
    36    25    26   1
    37    28    29   1
    38    33    34   1
    39    34    35   2
    40    34    36  am
    41    37    38   1
    42     4    41   1
    43     7    42   1
    44     7    43   1
    45     8    44   1
    46     9    45   1
    47     9    46   1
    48    10    47   1
    49    11    48   1
    50    12    49   1
    51    13    50   1
    52    15    51   1
    53    16    52   1
    54    17    53   1
    55    18    54   1
    56    19    55   1
    57    22    56   1
    58    26    57   1
    59    26    58   1
    60    26    59   1
    61    27    60   1
    62    27    61   1
    63    27    62   1
    64    29    63   1
    65    29    64   1
    66    29    65   1
    67    30    66   1
    68    31    67   1
    69    31    68   1
    70    31    69   1
    71    32    70   1
    72    32    71   1
    73    32    72   1
    74    36    73   1
    75    36    74   1
    76    38    75   1
    77    38    76   1
    78    38    77   1
    79    39    78   1
    80    39    79   1
    81    39    80   1
@<TRIPOS>SUBSTRUCTURE
     1  GMY      1

