@<TRIPOS>MOLECULE
2yge_ligand_004
    80    81
SMALL
GAST_HUCK
****
This file was generated by PARSER (from files_GN.cpp)

@<TRIPOS>ATOM
      1 C1         26.8932  -35.9437   -7.2819 C.2         1 GMY       0.0496
      2 C2         28.0959  -35.5088   -6.7166 C.2         1 GMY       0.1905
      3 C3         28.8294  -34.4919   -7.3000 C.2         1 GMY       0.1367
      4 C4         28.4550  -34.0507   -8.5229 C.2         1 GMY       0.0078
      5 C5         27.3282  -34.5264   -9.1361 C.2         1 GMY       0.1522
      6 C6         26.5418  -35.4695   -8.5083 C.2         1 GMY       0.1484
      7 C7         26.0901  -36.9648   -6.5729 C.3         1 GMY      -0.0163
      8 C8         25.4409  -36.4823   -5.2238 C.3         1 GMY      -0.0344
      9 C9         24.2216  -35.5423   -5.5018 C.3         1 GMY      -0.0200
     10 C10        23.5385  -34.8008   -4.3134 C.3         1 GMY       0.0859
     11 C11        22.4026  -33.8098   -4.7612 C.3         1 GMY       0.0868
     12 C12        22.8716  -32.5052   -5.4915 C.3         1 GMY      -0.0094
     13 C13        23.6929  -31.6729   -4.5991 C.2         1 GMY      -0.1006
     14 C14        24.9177  -31.1451   -4.8198 C.2         1 GMY      -0.0457
     15 C15        25.5756  -30.3462   -3.7546 C.3         1 GMY       0.1504
     16 C16        26.8507  -31.0152   -3.1377 C.3         1 GMY       0.1288
     17 C17        26.6884  -32.4340   -2.8283 C.2         1 GMY      -0.0424
     18 C18        27.4165  -33.4527   -3.3248 C.2         1 GMY      -0.0729
     19 C19        28.3148  -33.3407   -4.3311 C.2         1 GMY      -0.0656
     20 C20        29.5537  -33.8780   -4.3814 C.2         1 GMY       0.0245
     21 C21        30.3049  -33.7003   -5.5211 C.2         1 GMY       0.2316
     22 N22        29.9360  -33.9266   -6.7797 N.am        1 GMY      -0.2158
     23 O23        28.6683  -36.2284   -5.9078 O.2         1 GMY      -0.3575
     24 O24        26.9677  -34.0144  -10.1875 O.2         1 GMY      -0.3865
     25 O25        25.5509  -36.0396   -9.2267 O.3         1 GMY      -0.3151
     26 C26        24.2971  -35.3378   -9.2820 C.3         1 GMY       0.0602
     27 C27        25.0788  -37.7161   -4.3452 C.3         1 GMY      -0.0609
     28 O28        22.9598  -35.7959   -3.4305 O.3         1 GMY      -0.3771
     29 C29        22.9030  -35.4843   -2.0263 C.3         1 GMY       0.0369
     30 O30        21.4675  -34.5180   -5.5755 O.3         1 GMY      -0.3877
     31 C31        21.6705  -31.6492   -5.9900 C.3         1 GMY      -0.0567
     32 C32        25.6147  -31.3387   -6.0892 C.3         1 GMY      -0.0373
     33 O33        25.9805  -29.0497   -4.2234 O.3         1 GMY      -0.2436
     34 C34        25.3108  -28.0634   -4.8636 C.2         1 GMY       0.3194
     35 O35        24.0348  -28.1817   -5.2681 O.2         1 GMY      -0.3776
     36 N36        25.9539  -26.8883   -5.0370 N.am        1 GMY      -0.2762
     37 O37        27.2221  -30.4269   -1.8680 O.3         1 GMY      -0.3598
     38 C38        27.8929  -29.1588   -1.8738 C.3         1 GMY       0.0406
     39 C39        30.1904  -34.6005   -3.2740 C.3         1 GMY      -0.0273
     40 O40        31.3793  -33.1267   -5.4035 O.2         1 GMY      -0.3753
     41 H1         28.9932  -33.3462   -8.9840 H           1 GMY       0.0327
     42 H2         26.7554  -37.8096   -6.3852 H           1 GMY       0.0392
     43 H3         25.2930  -37.3688   -7.2013 H           1 GMY       0.0392
     44 H4         26.1912  -35.9120   -4.6647 H           1 GMY       0.0317
     45 H5         23.4634  -36.1131   -6.0317 H           1 GMY       0.0295
     46 H6         24.5925  -34.7686   -6.1541 H           1 GMY       0.0295
     47 H7         24.3264  -34.2442   -3.7914 H           1 GMY       0.0623
     48 H8         21.8515  -33.4969   -3.8720 H           1 GMY       0.0637
     49 H9         23.4267  -32.7940   -6.3843 H           1 GMY       0.0398
     50 H10        23.2607  -31.4732   -3.7213 H           1 GMY       0.0247
     51 H11        24.8827  -30.1614   -2.9253 H           1 GMY       0.0853
     52 H12        27.6773  -30.8756   -3.8367 H           1 GMY       0.0852
     53 H13        26.0030  -32.6609   -2.1385 H           1 GMY       0.0741
     54 H14        27.2379  -34.3634   -2.9630 H           1 GMY       0.0436
     55 H15        28.0030  -32.8262   -5.1199 H           1 GMY       0.0539
     56 H16        30.5427  -33.5505   -7.4356 H           1 GMY       0.2392
     57 H17        23.6332  -35.9022   -9.9324 H           1 GMY       0.0581
     58 H18        24.4057  -34.3311   -9.6906 H           1 GMY       0.0581
     59 H19        23.8232  -35.2706   -8.3104 H           1 GMY       0.0581
     60 H20        25.9309  -38.3956   -4.2633 H           1 GMY       0.0234
     61 H21        24.2376  -38.2576   -4.7792 H           1 GMY       0.0234
     62 H22        24.8270  -37.4110   -3.3307 H           1 GMY       0.0234
     63 H23        22.5143  -36.3588   -1.5088 H           1 GMY       0.0524
     64 H24        22.2377  -34.6463   -1.8343 H           1 GMY       0.0524
     65 H25        23.8943  -35.2613   -1.6353 H           1 GMY       0.0524
     66 H26        21.0938  -35.2207   -4.9974 H           1 GMY       0.2101
     67 H27        22.0204  -30.7277   -6.4633 H           1 GMY       0.0247
     68 H28        21.0076  -31.3824   -5.1632 H           1 GMY       0.0247
     69 H29        21.0875  -32.1971   -6.7335 H           1 GMY       0.0247
     70 H30        25.0048  -30.9451   -6.9037 H           1 GMY       0.0376
     71 H31        25.7962  -32.4012   -6.2558 H           1 GMY       0.0376
     72 H32        26.5766  -30.8281   -6.1245 H           1 GMY       0.0376
     73 H33        25.4999  -26.1493   -5.4676 H           1 GMY       0.1831
     74 H34        26.8581  -26.7835   -4.7096 H           1 GMY       0.1831
     75 H35        28.3697  -29.0294   -0.9040 H           1 GMY       0.0527
     76 H36        27.1811  -28.3465   -2.0180 H           1 GMY       0.0527
     77 H37        28.6642  -29.1126   -2.6446 H           1 GMY       0.0527
     78 H38        29.5583  -34.6899   -2.3944 H           1 GMY       0.0384
     79 H39        31.1013  -34.0855   -2.9599 H           1 GMY       0.0384
     80 H40        30.4554  -35.6084   -3.5986 H           1 GMY       0.0384
@<TRIPOS>BOND
     1     1     2   1
     2     1     6   2
     3     1     7   1
     4     2     3   1
     5     2    23   2
     6     3     4   2
     7     3    22   1
     8     4     5   1
     9     5     6   1
    10     5    24   2
    11     6    25   1
    12     7     8   1
    13     8     9   1
    14     8    27   1
    15     9    10   1
    16    10    11   1
    17    10    28   1
    18    11    12   1
    19    11    30   1
    20    12    13   1
    21    12    31   1
    22    13    14   2
    23    14    15   1
    24    14    32   1
    25    15    16   1
    26    15    33   1
    27    16    17   1
    28    16    37   1
    29    17    18   2
    30    18    19   1
    31    19    20   2
    32    20    21   1
    33    20    39   1
    34    21    22  am
    35    21    40   2
    36    25    26   1
    37    28    29   1
    38    33    34   1
    39    34    35   2
    40    34    36  am
    41    37    38   1
    42     4    41   1
    43     7    42   1
    44     7    43   1
    45     8    44   1
    46     9    45   1
    47     9    46   1
    48    10    47   1
    49    11    48   1
    50    12    49   1
    51    13    50   1
    52    15    51   1
    53    16    52   1
    54    17    53   1
    55    18    54   1
    56    19    55   1
    57    22    56   1
    58    26    57   1
    59    26    58   1
    60    26    59   1
    61    27    60   1
    62    27    61   1
    63    27    62   1
    64    29    63   1
    65    29    64   1
    66    29    65   1
    67    30    66   1
    68    31    67   1
    69    31    68   1
    70    31    69   1
    71    32    70   1
    72    32    71   1
    73    32    72   1
    74    36    73   1
    75    36    74   1
    76    38    75   1
    77    38    76   1
    78    38    77   1
    79    39    78   1
    80    39    79   1
    81    39    80   1
@<TRIPOS>SUBSTRUCTURE
     1  GMY      1

