@<TRIPOS>MOLECULE
2yge_ligand_052
    80    81
SMALL
GAST_HUCK
****
This file was generated by PARSER (from files_GN.cpp)

@<TRIPOS>ATOM
      1 C1         21.3826  -35.9933   -8.0332 C.2         1 GMY       0.0496
      2 C2         20.2320  -35.2173   -7.8471 C.2         1 GMY       0.1905
      3 C3         19.0352  -35.8001   -7.4641 C.2         1 GMY       0.1367
      4 C4         18.9342  -37.1480   -7.5407 C.2         1 GMY       0.0078
      5 C5         20.0301  -37.9217   -7.7822 C.2         1 GMY       0.1522
      6 C6         21.2767  -37.3492   -7.8776 C.2         1 GMY       0.1484
      7 C7         22.6250  -35.3842   -8.5489 C.3         1 GMY      -0.0163
      8 C8         23.3885  -34.3945   -7.5986 C.3         1 GMY      -0.0344
      9 C9         23.9006  -35.1255   -6.3072 C.3         1 GMY      -0.0200
     10 C10        24.3647  -34.2641   -5.0827 C.3         1 GMY       0.0859
     11 C11        24.9962  -35.1067   -3.9175 C.3         1 GMY       0.0868
     12 C12        23.9967  -35.9888   -3.0881 C.3         1 GMY      -0.0094
     13 C13        23.0390  -35.1535   -2.3483 C.2         1 GMY      -0.1006
     14 C14        21.6958  -35.2788   -2.2839 C.2         1 GMY      -0.0457
     15 C15        20.9037  -34.3274   -1.4733 C.3         1 GMY       0.1504
     16 C16        20.0221  -33.3573   -2.3236 C.3         1 GMY       0.1288
     17 C17        20.8134  -32.6322   -3.3244 C.2         1 GMY      -0.0424
     18 C18        20.6574  -32.7055   -4.6531 C.2         1 GMY      -0.0729
     19 C19        19.7542  -33.5067   -5.2686 C.2         1 GMY      -0.0656
     20 C20        18.6073  -33.1068   -5.8606 C.2         1 GMY       0.0245
     21 C21        17.7213  -34.0316   -6.3663 C.2         1 GMY       0.2316
     22 N22        17.9303  -35.1667   -7.0198 N.am        1 GMY      -0.2158
     23 O23        20.1804  -34.0763   -8.2963 O.2         1 GMY      -0.3575
     24 O24        19.8692  -39.1121   -8.0278 O.2         1 GMY      -0.3865
     25 O25        22.3478  -38.1623   -7.9730 O.3         1 GMY      -0.3151
     26 C26        22.7665  -38.7997   -6.7427 C.3         1 GMY       0.0602
     27 C27        24.5434  -33.7186   -8.4077 C.3         1 GMY      -0.0609
     28 O28        25.3495  -33.2964   -5.5055 O.3         1 GMY      -0.3771
     29 C29        25.3225  -32.0104   -4.8570 C.3         1 GMY       0.0369
     30 O30        26.0592  -35.8964   -4.4539 O.3         1 GMY      -0.3877
     31 C31        24.7125  -36.9049   -2.0540 C.3         1 GMY      -0.0567
     32 C32        21.0028  -36.3481   -2.9993 C.3         1 GMY      -0.0373
     33 O33        20.1847  -35.0695   -0.4670 O.3         1 GMY      -0.2436
     34 C34        18.8904  -35.4729   -0.3084 C.2         1 GMY       0.3194
     35 O35        17.9084  -35.2491   -1.2086 O.2         1 GMY      -0.3776
     36 N36        18.5806  -36.1617    0.7922 N.am        1 GMY      -0.2762
     37 O37        19.4043  -32.4111   -1.4218 O.3         1 GMY      -0.3598
     38 C38        18.2174  -31.7518   -1.8922 C.3         1 GMY       0.0406
     39 C39        18.1937  -31.6985   -5.9052 C.3         1 GMY      -0.0273
     40 O40        16.5321  -33.8669   -6.0961 O.2         1 GMY      -0.3753
     41 H1         18.0646  -37.5952   -7.3574 H           1 GMY       0.0327
     42 H2         22.3505  -34.8557   -9.4675 H           1 GMY       0.0392
     43 H3         23.3390  -36.1444   -8.8728 H           1 GMY       0.0392
     44 H4         22.6948  -33.6063   -7.2998 H           1 GMY       0.0317
     45 H5         24.6984  -35.8058   -6.6060 H           1 GMY       0.0295
     46 H6         23.0772  -35.7339   -5.9387 H           1 GMY       0.0295
     47 H7         23.4726  -33.7535   -4.7077 H           1 GMY       0.0623
     48 H8         25.4656  -34.4107   -3.2167 H           1 GMY       0.0637
     49 H9         23.4955  -36.6580   -3.7890 H           1 GMY       0.0398
     50 H10        23.4571  -34.4390   -1.7951 H           1 GMY       0.0247
     51 H11        21.5628  -33.6770   -0.8886 H           1 GMY       0.0853
     52 H12        19.2524  -33.9583   -2.8066 H           1 GMY       0.0852
     53 H13        21.5252  -32.0296   -2.9813 H           1 GMY       0.0741
     54 H14        21.2274  -32.1390   -5.2343 H           1 GMY       0.0436
     55 H15        19.9445  -34.4792   -5.1971 H           1 GMY       0.0539
     56 H16        17.1193  -35.6964   -7.1275 H           1 GMY       0.2392
     57 H17        23.6165  -39.4492   -6.9734 H           1 GMY       0.0581
     58 H18        21.9805  -39.4260   -6.3170 H           1 GMY       0.0581
     59 H19        23.0827  -38.0691   -6.0036 H           1 GMY       0.0581
     60 H20        24.1712  -33.3142   -9.3502 H           1 GMY       0.0234
     61 H21        25.3330  -34.4392   -8.6386 H           1 GMY       0.0234
     62 H22        24.9840  -32.8833   -7.8666 H           1 GMY       0.0234
     63 H23        26.1231  -31.3959   -5.2728 H           1 GMY       0.0524
     64 H24        25.4837  -32.0980   -3.7824 H           1 GMY       0.0524
     65 H25        24.3726  -31.5076   -5.0420 H           1 GMY       0.0524
     66 H26        26.5653  -36.2275   -3.6827 H           1 GMY       0.2101
     67 H27        23.9793  -37.4656   -1.4679 H           1 GMY       0.0247
     68 H28        25.3215  -36.3100   -1.3700 H           1 GMY       0.0247
     69 H29        25.3519  -37.6295   -2.5629 H           1 GMY       0.0247
     70 H30        21.3507  -37.3190   -2.6365 H           1 GMY       0.0376
     71 H31        21.1920  -36.2774   -4.0736 H           1 GMY       0.0376
     72 H32        19.9216  -36.3107   -2.8555 H           1 GMY       0.0376
     73 H33        17.6765  -36.4911    0.9154 H           1 GMY       0.1831
     74 H34        19.2577  -36.3466    1.4583 H           1 GMY       0.1831
     75 H35        17.8996  -31.0390   -1.1310 H           1 GMY       0.0527
     76 H36        17.4157  -32.4735   -2.0477 H           1 GMY       0.0527
     77 H37        18.4006  -31.2025   -2.8150 H           1 GMY       0.0527
     78 H38        18.9196  -31.0190   -5.4716 H           1 GMY       0.0384
     79 H39        17.2582  -31.5504   -5.3607 H           1 GMY       0.0384
     80 H40        18.0426  -31.4016   -6.9426 H           1 GMY       0.0384
@<TRIPOS>BOND
     1     1     2   1
     2     1     6   2
     3     1     7   1
     4     2     3   1
     5     2    23   2
     6     3     4   2
     7     3    22   1
     8     4     5   1
     9     5     6   1
    10     5    24   2
    11     6    25   1
    12     7     8   1
    13     8     9   1
    14     8    27   1
    15     9    10   1
    16    10    11   1
    17    10    28   1
    18    11    12   1
    19    11    30   1
    20    12    13   1
    21    12    31   1
    22    13    14   2
    23    14    15   1
    24    14    32   1
    25    15    16   1
    26    15    33   1
    27    16    17   1
    28    16    37   1
    29    17    18   2
    30    18    19   1
    31    19    20   2
    32    20    21   1
    33    20    39   1
    34    21    22  am
    35    21    40   2
    36    25    26   1
    37    28    29   1
    38    33    34   1
    39    34    35   2
    40    34    36  am
    41    37    38   1
    42     4    41   1
    43     7    42   1
    44     7    43   1
    45     8    44   1
    46     9    45   1
    47     9    46   1
    48    10    47   1
    49    11    48   1
    50    12    49   1
    51    13    50   1
    52    15    51   1
    53    16    52   1
    54    17    53   1
    55    18    54   1
    56    19    55   1
    57    22    56   1
    58    26    57   1
    59    26    58   1
    60    26    59   1
    61    27    60   1
    62    27    61   1
    63    27    62   1
    64    29    63   1
    65    29    64   1
    66    29    65   1
    67    30    66   1
    68    31    67   1
    69    31    68   1
    70    31    69   1
    71    32    70   1
    72    32    71   1
    73    32    72   1
    74    36    73   1
    75    36    74   1
    76    38    75   1
    77    38    76   1
    78    38    77   1
    79    39    78   1
    80    39    79   1
    81    39    80   1
@<TRIPOS>SUBSTRUCTURE
     1  GMY      1

