@<TRIPOS>MOLECULE
2yge_ligand_013
    80    81
SMALL
GAST_HUCK
****
This file was generated by PARSER (from files_GN.cpp)

@<TRIPOS>ATOM
      1 C1         25.3422  -29.8084   -5.3243 C.2         1 GMY       0.0496
      2 C2         26.1933  -28.7612   -5.6549 C.2         1 GMY       0.1905
      3 C3         27.1009  -28.2695   -4.7413 C.2         1 GMY       0.1367
      4 C4         26.9904  -28.6564   -3.4548 C.2         1 GMY       0.0078
      5 C5         26.1274  -29.6483   -3.0856 C.2         1 GMY       0.1522
      6 C6         25.2980  -30.2444   -4.0275 C.2         1 GMY       0.1484
      7 C7         24.6288  -30.5305   -6.4007 C.3         1 GMY      -0.0163
      8 C8         25.4378  -31.7734   -6.9348 C.3         1 GMY      -0.0344
      9 C9         24.5873  -33.0832   -6.9280 C.3         1 GMY      -0.0200
     10 C10        25.3826  -34.4309   -7.0674 C.3         1 GMY       0.0859
     11 C11        25.6187  -35.2111   -5.7325 C.3         1 GMY       0.0868
     12 C12        26.5429  -34.4999   -4.6816 C.3         1 GMY      -0.0094
     13 C13        27.9132  -34.2830   -5.1701 C.2         1 GMY      -0.1006
     14 C14        28.7765  -33.3111   -4.7797 C.2         1 GMY      -0.0457
     15 C15        30.2240  -33.4371   -5.0643 C.3         1 GMY       0.1504
     16 C16        30.8638  -32.2398   -5.8375 C.3         1 GMY       0.1288
     17 C17        30.1364  -31.9163   -7.0665 C.2         1 GMY      -0.0424
     18 C18        29.5196  -30.7626   -7.3964 C.2         1 GMY      -0.0729
     19 C19        29.3715  -29.6467   -6.6195 C.2         1 GMY      -0.0656
     20 C20        29.0716  -28.3858   -7.0188 C.2         1 GMY       0.0245
     21 C21        28.9367  -27.4092   -6.0651 C.2         1 GMY       0.2316
     22 N22        28.0874  -27.4055   -5.0413 N.am        1 GMY      -0.2158
     23 O23        25.9717  -28.0835   -6.6530 O.2         1 GMY      -0.3575
     24 O24        26.3151  -30.1399   -1.9824 O.2         1 GMY      -0.3865
     25 O25        24.4206  -31.2461   -3.7562 O.3         1 GMY      -0.3151
     26 C26        24.2312  -31.9344   -2.5077 C.3         1 GMY       0.0602
     27 C27        26.0881  -31.4736   -8.3176 C.3         1 GMY      -0.0609
     28 O28        24.6605  -35.3365   -7.9323 O.3         1 GMY      -0.3771
     29 C29        24.6834  -35.0339   -9.3361 C.3         1 GMY       0.0369
     30 O30        24.3569  -35.5763   -5.1597 O.3         1 GMY      -0.3877
     31 C31        26.6044  -35.3131   -3.3542 C.3         1 GMY      -0.0567
     32 C32        28.3319  -32.1668   -3.9880 C.3         1 GMY      -0.0373
     33 O33        30.9153  -33.5639   -3.8063 O.3         1 GMY      -0.2436
     34 C34        30.7171  -34.5170   -2.8545 C.2         1 GMY       0.3194
     35 O35        29.8416  -35.5330   -3.0317 O.2         1 GMY      -0.3776
     36 N36        31.3621  -34.4252   -1.6836 N.am        1 GMY      -0.2762
     37 O37        32.2160  -32.6257   -6.1695 O.3         1 GMY      -0.3598
     38 C38        33.1237  -31.5644   -6.5132 C.3         1 GMY       0.0406
     39 C39        28.9351  -27.9417   -8.4081 C.3         1 GMY      -0.0273
     40 O40        29.7824  -26.5262   -6.0342 O.2         1 GMY      -0.3753
     41 H1         27.6033  -28.2707   -2.7728 H           1 GMY       0.0327
     42 H2         24.3942  -29.8607   -7.2306 H           1 GMY       0.0392
     43 H3         23.6413  -30.8197   -6.0378 H           1 GMY       0.0392
     44 H4         26.2730  -31.9582   -6.2653 H           1 GMY       0.0317
     45 H5         23.8554  -32.9981   -7.7276 H           1 GMY       0.0295
     46 H6         24.0046  -33.1174   -6.0073 H           1 GMY       0.0295
     47 H7         26.3763  -34.2403   -7.4849 H           1 GMY       0.0623
     48 H8         26.0923  -36.1630   -5.9933 H           1 GMY       0.0637
     49 H9         26.0728  -33.5444   -4.4523 H           1 GMY       0.0398
     50 H10        28.2854  -35.0240   -5.7172 H           1 GMY       0.0247
     51 H11        30.4372  -34.3423   -5.6439 H           1 GMY       0.0853
     52 H12        30.9160  -31.3908   -5.1546 H           1 GMY       0.0852
     53 H13        30.1195  -32.6375   -7.7528 H           1 GMY       0.0741
     54 H14        29.0933  -30.7551   -8.2941 H           1 GMY       0.0436
     55 H15        29.4519  -29.7960   -5.6403 H           1 GMY       0.0539
     56 H16        28.2880  -26.7545   -4.3501 H           1 GMY       0.2392
     57 H17        23.3506  -32.5701   -2.6040 H           1 GMY       0.0581
     58 H18        24.0538  -31.2417   -1.6846 H           1 GMY       0.0581
     59 H19        25.0868  -32.5690   -2.2777 H           1 GMY       0.0581
     60 H20        26.6290  -30.5258   -8.2807 H           1 GMY       0.0234
     61 H21        25.3326  -31.4011   -9.0958 H           1 GMY       0.0234
     62 H22        26.7973  -32.2517   -8.6016 H           1 GMY       0.0234
     63 H23        24.0224  -35.7346   -9.8481 H           1 GMY       0.0524
     64 H24        25.6926  -35.1547   -9.7329 H           1 GMY       0.0524
     65 H25        24.3334  -34.0203   -9.5383 H           1 GMY       0.0524
     66 H26        24.0856  -34.8272   -4.5897 H           1 GMY       0.2101
     67 H27        27.2384  -34.8167   -2.6179 H           1 GMY       0.0247
     68 H28        26.9996  -36.3160   -3.5267 H           1 GMY       0.0247
     69 H29        25.6089  -35.4050   -2.9181 H           1 GMY       0.0247
     70 H30        27.7633  -32.4823   -3.1132 H           1 GMY       0.0376
     71 H31        27.7137  -31.5249   -4.6071 H           1 GMY       0.0376
     72 H32        29.1562  -31.5504   -3.6280 H           1 GMY       0.0376
     73 H33        31.1852  -35.0796   -0.9899 H           1 GMY       0.1831
     74 H34        31.9478  -33.6747   -1.5025 H           1 GMY       0.1831
     75 H35        34.0821  -32.0061   -6.7892 H           1 GMY       0.0527
     76 H36        33.2789  -30.9030   -5.6569 H           1 GMY       0.0527
     77 H37        32.7507  -30.9852   -7.3596 H           1 GMY       0.0527
     78 H38        29.1163  -28.7202   -9.1461 H           1 GMY       0.0384
     79 H39        29.6490  -27.1410   -8.6145 H           1 GMY       0.0384
     80 H40        27.9273  -27.5571   -8.5740 H           1 GMY       0.0384
@<TRIPOS>BOND
     1     1     2   1
     2     1     6   2
     3     1     7   1
     4     2     3   1
     5     2    23   2
     6     3     4   2
     7     3    22   1
     8     4     5   1
     9     5     6   1
    10     5    24   2
    11     6    25   1
    12     7     8   1
    13     8     9   1
    14     8    27   1
    15     9    10   1
    16    10    11   1
    17    10    28   1
    18    11    12   1
    19    11    30   1
    20    12    13   1
    21    12    31   1
    22    13    14   2
    23    14    15   1
    24    14    32   1
    25    15    16   1
    26    15    33   1
    27    16    17   1
    28    16    37   1
    29    17    18   2
    30    18    19   1
    31    19    20   2
    32    20    21   1
    33    20    39   1
    34    21    22  am
    35    21    40   2
    36    25    26   1
    37    28    29   1
    38    33    34   1
    39    34    35   2
    40    34    36  am
    41    37    38   1
    42     4    41   1
    43     7    42   1
    44     7    43   1
    45     8    44   1
    46     9    45   1
    47     9    46   1
    48    10    47   1
    49    11    48   1
    50    12    49   1
    51    13    50   1
    52    15    51   1
    53    16    52   1
    54    17    53   1
    55    18    54   1
    56    19    55   1
    57    22    56   1
    58    26    57   1
    59    26    58   1
    60    26    59   1
    61    27    60   1
    62    27    61   1
    63    27    62   1
    64    29    63   1
    65    29    64   1
    66    29    65   1
    67    30    66   1
    68    31    67   1
    69    31    68   1
    70    31    69   1
    71    32    70   1
    72    32    71   1
    73    32    72   1
    74    36    73   1
    75    36    74   1
    76    38    75   1
    77    38    76   1
    78    38    77   1
    79    39    78   1
    80    39    79   1
    81    39    80   1
@<TRIPOS>SUBSTRUCTURE
     1  GMY      1

