@<TRIPOS>MOLECULE
2yge_ligand_054
    80    81
SMALL
GAST_HUCK
****
This file was generated by PARSER (from files_GN.cpp)

@<TRIPOS>ATOM
      1 C1         27.1444  -35.1613   -8.2439 C.2         1 GMY       0.0496
      2 C2         26.8561  -34.0174   -8.9729 C.2         1 GMY       0.1905
      3 C3         25.6186  -33.4254   -8.8571 C.2         1 GMY       0.1367
      4 C4         24.5831  -34.1884   -8.4334 C.2         1 GMY       0.0078
      5 C5         24.8094  -35.4596   -7.9746 C.2         1 GMY       0.1522
      6 C6         26.1039  -35.8670   -7.7060 C.2         1 GMY       0.1484
      7 C7         28.5575  -35.5283   -8.0561 C.3         1 GMY      -0.0163
      8 C8         29.3747  -34.4831   -7.2002 C.3         1 GMY      -0.0344
      9 C9         30.1550  -35.1468   -6.0177 C.3         1 GMY      -0.0200
     10 C10        30.5147  -34.1953   -4.8172 C.3         1 GMY       0.0859
     11 C11        29.6381  -34.4335   -3.5420 C.3         1 GMY       0.0868
     12 C12        28.1572  -33.8988   -3.6428 C.3         1 GMY      -0.0094
     13 C13        28.1048  -32.4310   -3.6072 C.2         1 GMY      -0.1006
     14 C14        27.0871  -31.5979   -3.9290 C.2         1 GMY      -0.0457
     15 C15        27.2691  -30.1404   -3.7348 C.3         1 GMY       0.1504
     16 C16        27.4660  -29.3422   -5.0626 C.3         1 GMY       0.1288
     17 C17        28.6862  -29.7723   -5.7513 C.2         1 GMY      -0.0424
     18 C18        28.7603  -30.5111   -6.8793 C.2         1 GMY      -0.0729
     19 C19        27.6852  -31.0199   -7.5275 C.2         1 GMY      -0.0656
     20 C20        27.4175  -30.9243   -8.8457 C.2         1 GMY       0.0245
     21 C21        26.1184  -31.0679   -9.2231 C.2         1 GMY       0.2316
     22 N22        25.3554  -32.1512   -9.1677 N.am        1 GMY      -0.2158
     23 O23        27.4629  -33.8161  -10.0180 O.2         1 GMY      -0.3575
     24 O24        23.8686  -36.2335   -7.7981 O.2         1 GMY      -0.3865
     25 O25        26.3262  -36.9761   -6.9654 O.3         1 GMY      -0.3151
     26 C26        25.9302  -36.8762   -5.5772 C.3         1 GMY       0.0602
     27 C27        30.3392  -33.6331   -8.0826 C.3         1 GMY      -0.0609
     28 O28        31.8887  -34.3957   -4.3981 O.3         1 GMY      -0.3771
     29 C29        32.9181  -33.9516   -5.2996 C.3         1 GMY       0.0369
     30 O30        29.6990  -35.8190   -3.1912 O.3         1 GMY      -0.3877
     31 C31        27.2617  -34.5303   -2.5316 C.3         1 GMY      -0.0567
     32 C32        25.8152  -32.0881   -4.4682 C.3         1 GMY      -0.0373
     33 O33        26.1284  -29.6409   -3.0146 O.3         1 GMY      -0.2436
     34 C34        26.0939  -29.0287   -1.8047 C.2         1 GMY       0.3194
     35 O35        27.2075  -28.8203   -1.0657 O.2         1 GMY      -0.3776
     36 N36        24.9214  -28.5836   -1.3305 N.am        1 GMY      -0.2762
     37 O37        27.6301  -27.9319   -4.7715 O.3         1 GMY      -0.3598
     38 C38        26.4421  -27.1257   -4.7240 C.3         1 GMY       0.0406
     39 C39        28.3670  -30.5002   -9.8764 C.3         1 GMY      -0.0273
     40 O40        25.5121  -30.0266   -9.4558 O.2         1 GMY      -0.3753
     41 H1         23.6614  -33.8103   -8.3980 H           1 GMY       0.0327
     42 H2         29.0114  -35.6415   -9.0422 H           1 GMY       0.0392
     43 H3         28.6300  -36.5223   -7.6155 H           1 GMY       0.0392
     44 H4         28.6675  -33.7802   -6.7524 H           1 GMY       0.0317
     45 H5         31.0664  -35.6026   -6.4177 H           1 GMY       0.0295
     46 H6         29.5603  -35.9809   -5.6370 H           1 GMY       0.0295
     47 H7         30.3804  -33.1488   -5.1086 H           1 GMY       0.0623
     48 H8         30.1269  -33.9237   -2.7062 H           1 GMY       0.0637
     49 H9         27.7688  -34.2189   -4.6030 H           1 GMY       0.0398
     50 H10        28.9519  -31.9925   -3.3395 H           1 GMY       0.0247
     51 H11        28.1576  -29.9339   -3.1254 H           1 GMY       0.0853
     52 H12        26.5897  -29.4938   -5.6976 H           1 GMY       0.0852
     53 H13        29.5508  -29.5153   -5.3363 H           1 GMY       0.0741
     54 H14        29.6624  -30.7231   -7.2337 H           1 GMY       0.0436
     55 H15        26.9783  -31.4061   -6.9412 H           1 GMY       0.0539
     56 H16        24.4214  -31.9830   -9.3347 H           1 GMY       0.2392
     57 H17        26.2504  -37.7791   -5.0522 H           1 GMY       0.0581
     58 H18        24.8402  -36.7924   -5.4781 H           1 GMY       0.0581
     59 H19        26.3911  -36.0139   -5.0887 H           1 GMY       0.0581
     60 H20        29.7831  -33.0950   -8.8496 H           1 GMY       0.0234
     61 H21        31.0788  -34.2695   -8.5743 H           1 GMY       0.0234
     62 H22        30.8714  -32.8963   -7.4790 H           1 GMY       0.0234
     63 H23        33.8861  -34.2308   -4.8796 H           1 GMY       0.0524
     64 H24        32.8904  -32.8633   -5.4066 H           1 GMY       0.0524
     65 H25        32.8209  -34.4180   -6.2826 H           1 GMY       0.0524
     66 H26        30.5607  -36.1360   -3.5399 H           1 GMY       0.2101
     67 H27        26.3109  -34.0201   -2.4083 H           1 GMY       0.0247
     68 H28        27.7631  -34.5194   -1.5633 H           1 GMY       0.0247
     69 H29        27.0373  -35.5674   -2.7794 H           1 GMY       0.0247
     70 H30        25.2178  -32.5372   -3.6786 H           1 GMY       0.0376
     71 H31        25.9752  -32.8251   -5.2557 H           1 GMY       0.0376
     72 H32        25.2149  -31.2850   -4.8966 H           1 GMY       0.0376
     73 H33        24.9019  -28.0280   -0.5362 H           1 GMY       0.1831
     74 H34        24.1055  -28.7439   -1.8294 H           1 GMY       0.1831
     75 H35        26.7047  -26.1323   -4.3622 H           1 GMY       0.0527
     76 H36        25.6923  -27.5473   -4.0537 H           1 GMY       0.0527
     77 H37        26.0206  -27.0279   -5.7249 H           1 GMY       0.0527
     78 H38        29.3802  -30.3670   -9.4978 H           1 GMY       0.0384
     79 H39        28.0513  -29.5526  -10.3173 H           1 GMY       0.0384
     80 H40        28.4128  -31.2510  -10.6684 H           1 GMY       0.0384
@<TRIPOS>BOND
     1     1     2   1
     2     1     6   2
     3     1     7   1
     4     2     3   1
     5     2    23   2
     6     3     4   2
     7     3    22   1
     8     4     5   1
     9     5     6   1
    10     5    24   2
    11     6    25   1
    12     7     8   1
    13     8     9   1
    14     8    27   1
    15     9    10   1
    16    10    11   1
    17    10    28   1
    18    11    12   1
    19    11    30   1
    20    12    13   1
    21    12    31   1
    22    13    14   2
    23    14    15   1
    24    14    32   1
    25    15    16   1
    26    15    33   1
    27    16    17   1
    28    16    37   1
    29    17    18   2
    30    18    19   1
    31    19    20   2
    32    20    21   1
    33    20    39   1
    34    21    22  am
    35    21    40   2
    36    25    26   1
    37    28    29   1
    38    33    34   1
    39    34    35   2
    40    34    36  am
    41    37    38   1
    42     4    41   1
    43     7    42   1
    44     7    43   1
    45     8    44   1
    46     9    45   1
    47     9    46   1
    48    10    47   1
    49    11    48   1
    50    12    49   1
    51    13    50   1
    52    15    51   1
    53    16    52   1
    54    17    53   1
    55    18    54   1
    56    19    55   1
    57    22    56   1
    58    26    57   1
    59    26    58   1
    60    26    59   1
    61    27    60   1
    62    27    61   1
    63    27    62   1
    64    29    63   1
    65    29    64   1
    66    29    65   1
    67    30    66   1
    68    31    67   1
    69    31    68   1
    70    31    69   1
    71    32    70   1
    72    32    71   1
    73    32    72   1
    74    36    73   1
    75    36    74   1
    76    38    75   1
    77    38    76   1
    78    38    77   1
    79    39    78   1
    80    39    79   1
    81    39    80   1
@<TRIPOS>SUBSTRUCTURE
     1  GMY      1

