@<TRIPOS>MOLECULE
2yge_ligand_012
    80    81
SMALL
GAST_HUCK
****
This file was generated by PARSER (from files_GN.cpp)

@<TRIPOS>ATOM
      1 C1         20.8670  -35.2912   -3.8941 C.2         1 GMY       0.0496
      2 C2         20.9574  -36.0680   -5.0467 C.2         1 GMY       0.1905
      3 C3         20.7711  -35.5057   -6.2978 C.2         1 GMY       0.1367
      4 C4         20.3292  -34.2289   -6.3726 C.2         1 GMY       0.0078
      5 C5         20.1645  -33.4726   -5.2461 C.2         1 GMY       0.1522
      6 C6         20.4566  -33.9958   -4.0065 C.2         1 GMY       0.1484
      7 C7         21.2987  -35.8559   -2.6009 C.3         1 GMY      -0.0163
      8 C8         22.8684  -35.9347   -2.4542 C.3         1 GMY      -0.0344
      9 C9         23.3788  -35.0573   -1.2655 C.3         1 GMY      -0.0200
     10 C10        24.9303  -34.8540   -1.1569 C.3         1 GMY       0.0859
     11 C11        25.4102  -33.3828   -1.3554 C.3         1 GMY       0.0868
     12 C12        25.1617  -32.7288   -2.7616 C.3         1 GMY      -0.0094
     13 C13        25.9569  -33.3420   -3.8335 C.2         1 GMY      -0.1006
     14 C14        25.6420  -33.4104   -5.1513 C.2         1 GMY      -0.0457
     15 C15        26.6783  -33.7977   -6.1330 C.3         1 GMY       0.1504
     16 C16        26.3892  -35.1186   -6.9184 C.3         1 GMY       0.1288
     17 C17        26.0824  -36.2272   -6.0061 C.2         1 GMY      -0.0424
     18 C18        24.9290  -36.9158   -5.9152 C.2         1 GMY      -0.0729
     19 C19        23.7980  -36.6563   -6.6256 C.2         1 GMY      -0.0656
     20 C20        22.9077  -37.5484   -7.1207 C.2         1 GMY       0.0245
     21 C21        21.8268  -37.0838   -7.8324 C.2         1 GMY       0.2316
     22 N22        20.9518  -36.1509   -7.4659 N.am        1 GMY      -0.2158
     23 O23        20.9612  -37.2894   -4.9519 O.2         1 GMY      -0.3575
     24 O24        19.8181  -32.3041   -5.3551 O.2         1 GMY      -0.3865
     25 O25        20.5110  -33.1695   -2.9399 O.3         1 GMY      -0.3151
     26 C26        19.2365  -32.8570   -2.3431 C.3         1 GMY       0.0602
     27 C27        23.3271  -37.4197   -2.3338 C.3         1 GMY      -0.0609
     28 O28        25.4490  -35.2174    0.1416 O.3         1 GMY      -0.3771
     29 C29        25.2739  -36.5633    0.6258 C.3         1 GMY       0.0369
     30 O30        24.8305  -32.5786   -0.3248 O.3         1 GMY      -0.3877
     31 C31        25.4905  -31.2009   -2.7295 C.3         1 GMY      -0.0567
     32 C32        24.3101  -33.0432   -5.6372 C.3         1 GMY      -0.0373
     33 O33        26.9197  -32.6267   -6.9363 O.3         1 GMY      -0.2436
     34 C34        26.7848  -32.2964   -8.2489 C.2         1 GMY       0.3194
     35 O35        26.3160  -33.1446   -9.1900 O.2         1 GMY      -0.3776
     36 N36        27.1251  -31.0529   -8.6211 N.am        1 GMY      -0.2762
     37 O37        27.5735  -35.4309   -7.6856 O.3         1 GMY      -0.3598
     38 C38        27.4426  -36.3948   -8.7454 C.3         1 GMY       0.0406
     39 C39        23.0448  -39.0062   -6.9991 C.3         1 GMY      -0.0273
     40 O40        21.7353  -37.4375   -9.0002 O.2         1 GMY      -0.3753
     41 H1         20.1629  -33.8145   -7.2606 H           1 GMY       0.0327
     42 H2         20.8392  -36.8429   -2.4804 H           1 GMY       0.0392
     43 H3         20.8777  -35.2889   -1.7685 H           1 GMY       0.0392
     44 H4         23.3354  -35.5486   -3.3669 H           1 GMY       0.0317
     45 H5         22.9983  -35.4877   -0.3385 H           1 GMY       0.0295
     46 H6         22.8913  -34.0918   -1.3653 H           1 GMY       0.0295
     47 H7         25.4501  -35.4553   -1.9026 H           1 GMY       0.0623
     48 H8         26.4880  -33.3502   -1.1711 H           1 GMY       0.0637
     49 H9         24.0969  -32.8176   -2.9841 H           1 GMY       0.0398
     50 H10        26.8821  -33.5971   -3.5679 H           1 GMY       0.0247
     51 H11        27.6378  -33.9697   -5.6346 H           1 GMY       0.0853
     52 H12        25.5672  -34.9291   -7.6097 H           1 GMY       0.0852
     53 H13        26.8075  -36.4975   -5.3814 H           1 GMY       0.0741
     54 H14        24.8800  -37.6355   -5.2275 H           1 GMY       0.0436
     55 H15        23.6000  -35.6954   -6.7741 H           1 GMY       0.0539
     56 H16        20.3965  -35.8325   -8.1931 H           1 GMY       0.2392
     57 H17        19.4246  -32.3614   -1.3895 H           1 GMY       0.0581
     58 H18        18.6373  -33.7534   -2.1508 H           1 GMY       0.0581
     59 H19        18.6726  -32.1709   -2.9803 H           1 GMY       0.0581
     60 H20        22.8986  -38.0279   -3.1402 H           1 GMY       0.0234
     61 H21        23.0056  -37.8427   -1.3763 H           1 GMY       0.0234
     62 H22        24.4146  -37.5066   -2.4090 H           1 GMY       0.0234
     63 H23        26.0462  -36.7574    1.3778 H           1 GMY       0.0524
     64 H24        25.3777  -37.3123   -0.1662 H           1 GMY       0.0524
     65 H25        24.2945  -36.6759    1.1044 H           1 GMY       0.0524
     66 H26        23.8776  -32.5275   -0.5411 H           1 GMY       0.2101
     67 H27        25.3488  -30.7358   -3.7113 H           1 GMY       0.0247
     68 H28        26.5273  -31.0346   -2.4153 H           1 GMY       0.0247
     69 H29        24.8296  -30.6817   -2.0270 H           1 GMY       0.0247
     70 H30        24.0850  -32.0061   -5.3927 H           1 GMY       0.0376
     71 H31        23.5578  -33.6853   -5.1805 H           1 GMY       0.0376
     72 H32        24.2151  -33.1435   -6.7178 H           1 GMY       0.0376
     73 H33        27.0409  -30.7774   -9.5504 H           1 GMY       0.1831
     74 H34        27.4537  -30.4221   -7.9583 H           1 GMY       0.1831
     75 H35        28.4170  -36.5092   -9.2237 H           1 GMY       0.0527
     76 H36        26.7275  -36.0551   -9.4974 H           1 GMY       0.0527
     77 H37        27.1318  -37.3673   -8.3595 H           1 GMY       0.0527
     78 H38        23.9422  -39.3226   -6.4646 H           1 GMY       0.0384
     79 H39        23.0879  -39.4688   -7.9903 H           1 GMY       0.0384
     80 H40        22.1820  -39.4155   -6.4643 H           1 GMY       0.0384
@<TRIPOS>BOND
     1     1     2   1
     2     1     6   2
     3     1     7   1
     4     2     3   1
     5     2    23   2
     6     3     4   2
     7     3    22   1
     8     4     5   1
     9     5     6   1
    10     5    24   2
    11     6    25   1
    12     7     8   1
    13     8     9   1
    14     8    27   1
    15     9    10   1
    16    10    11   1
    17    10    28   1
    18    11    12   1
    19    11    30   1
    20    12    13   1
    21    12    31   1
    22    13    14   2
    23    14    15   1
    24    14    32   1
    25    15    16   1
    26    15    33   1
    27    16    17   1
    28    16    37   1
    29    17    18   2
    30    18    19   1
    31    19    20   2
    32    20    21   1
    33    20    39   1
    34    21    22  am
    35    21    40   2
    36    25    26   1
    37    28    29   1
    38    33    34   1
    39    34    35   2
    40    34    36  am
    41    37    38   1
    42     4    41   1
    43     7    42   1
    44     7    43   1
    45     8    44   1
    46     9    45   1
    47     9    46   1
    48    10    47   1
    49    11    48   1
    50    12    49   1
    51    13    50   1
    52    15    51   1
    53    16    52   1
    54    17    53   1
    55    18    54   1
    56    19    55   1
    57    22    56   1
    58    26    57   1
    59    26    58   1
    60    26    59   1
    61    27    60   1
    62    27    61   1
    63    27    62   1
    64    29    63   1
    65    29    64   1
    66    29    65   1
    67    30    66   1
    68    31    67   1
    69    31    68   1
    70    31    69   1
    71    32    70   1
    72    32    71   1
    73    32    72   1
    74    36    73   1
    75    36    74   1
    76    38    75   1
    77    38    76   1
    78    38    77   1
    79    39    78   1
    80    39    79   1
    81    39    80   1
@<TRIPOS>SUBSTRUCTURE
     1  GMY      1

