@<TRIPOS>MOLECULE
2yge_ligand_011
    80    81
SMALL
GAST_HUCK
****
This file was generated by PARSER (from files_GN.cpp)

@<TRIPOS>ATOM
      1 C1         23.5032  -32.0059   -2.9507 C.2         1 GMY       0.0496
      2 C2         23.6166  -32.7942   -1.8120 C.2         1 GMY       0.1905
      3 C3         22.6562  -33.7447   -1.5216 C.2         1 GMY       0.1367
      4 C4         21.4645  -33.6640   -2.1541 C.2         1 GMY       0.0078
      5 C5         21.2567  -32.7363   -3.1302 C.2         1 GMY       0.1522
      6 C6         22.3245  -32.0253   -3.6336 C.2         1 GMY       0.1484
      7 C7         24.6611  -31.1888   -3.3766 C.3         1 GMY      -0.0163
      8 C8         25.8122  -32.0214   -4.0487 C.3         1 GMY      -0.0344
      9 C9         25.8544  -31.7959   -5.5978 C.3         1 GMY      -0.0200
     10 C10        26.7744  -32.7693   -6.4129 C.3         1 GMY       0.0859
     11 C11        26.2248  -33.1534   -7.8334 C.3         1 GMY       0.0868
     12 C12        25.0147  -34.1549   -7.8210 C.3         1 GMY      -0.0094
     13 C13        25.4169  -35.4561   -7.2752 C.2         1 GMY      -0.1006
     14 C14        24.8659  -36.1521   -6.2513 C.2         1 GMY      -0.0457
     15 C15        25.4470  -37.4582   -5.8668 C.3         1 GMY       0.1504
     16 C16        25.9164  -37.5934   -4.3767 C.3         1 GMY       0.1288
     17 C17        26.6593  -36.4206   -3.9070 C.2         1 GMY      -0.0424
     18 C18        26.3564  -35.6137   -2.8728 C.2         1 GMY      -0.0729
     19 C19        25.2405  -35.6671   -2.0978 C.2         1 GMY      -0.0656
     20 C20        25.1323  -35.3333   -0.7878 C.2         1 GMY       0.0245
     21 C21        23.8934  -35.3763   -0.2038 C.2         1 GMY       0.2316
     22 N22        22.8060  -34.7151   -0.5976 N.am        1 GMY      -0.2158
     23 O23        24.3165  -32.4103   -0.8837 O.2         1 GMY      -0.3575
     24 O24        20.1083  -32.5097   -3.5105 O.2         1 GMY      -0.3865
     25 O25        22.1909  -31.2419   -4.7234 O.3         1 GMY      -0.3151
     26 C26        21.4541  -31.7795   -5.8518 C.3         1 GMY       0.0602
     27 C27        27.1897  -31.7453   -3.3852 C.3         1 GMY      -0.0609
     28 O28        28.1572  -32.3389   -6.4293 O.3         1 GMY      -0.3771
     29 C29        28.5923  -31.2656   -7.2875 C.3         1 GMY       0.0369
     30 O30        25.8968  -31.9640   -8.5584 O.3         1 GMY      -0.3877
     31 C31        24.4148  -34.3651   -9.2406 C.3         1 GMY      -0.0567
     32 C32        23.6636  -35.6782   -5.5673 C.3         1 GMY      -0.0373
     33 O33        24.4795  -38.4880   -6.1413 O.3         1 GMY      -0.2436
     34 C34        24.1212  -38.9936   -7.3489 C.2         1 GMY       0.3194
     35 O35        24.7126  -38.5832   -8.4950 O.2         1 GMY      -0.3776
     36 N36        23.1470  -39.9097   -7.4226 N.am        1 GMY      -0.2762
     37 O37        26.7754  -38.7566   -4.3220 O.3         1 GMY      -0.3598
     38 C38        26.9754  -39.3928   -3.0464 C.3         1 GMY       0.0406
     39 C39        26.2538  -34.9695    0.0850 C.3         1 GMY      -0.0273
     40 O40        23.7161  -36.1934    0.6901 O.2         1 GMY      -0.3753
     41 H1         20.7398  -34.3049   -1.9278 H           1 GMY       0.0327
     42 H2         25.0375  -30.6518   -2.5039 H           1 GMY       0.0392
     43 H3         24.3561  -30.3857   -4.0525 H           1 GMY       0.0392
     44 H4         25.6064  -33.0849   -3.8977 H           1 GMY       0.0317
     45 H5         26.1471  -30.7614   -5.8005 H           1 GMY       0.0295
     46 H6         24.8311  -31.8983   -5.9605 H           1 GMY       0.0295
     47 H7         26.8241  -33.7036   -5.8500 H           1 GMY       0.0623
     48 H8         27.0413  -33.6238   -8.3917 H           1 GMY       0.0637
     49 H9         24.2203  -33.7054   -7.2287 H           1 GMY       0.0398
     50 H10        26.1872  -35.8678   -7.7525 H           1 GMY       0.0247
     51 H11        26.3255  -37.6898   -6.4795 H           1 GMY       0.0853
     52 H12        25.0326  -37.7877   -3.7651 H           1 GMY       0.0852
     53 H13        27.5028  -36.2205   -4.3951 H           1 GMY       0.0741
     54 H14        26.9934  -34.8716   -2.6955 H           1 GMY       0.0436
     55 H15        24.4032  -35.9313   -2.5687 H           1 GMY       0.0539
     56 H16        21.9786  -35.0258   -0.1864 H           1 GMY       0.2392
     57 H17        21.7958  -31.2658   -6.7629 H           1 GMY       0.0581
     58 H18        20.3755  -31.5827   -5.7252 H           1 GMY       0.0581
     59 H19        21.6076  -32.8637   -5.9908 H           1 GMY       0.0581
     60 H20        27.1312  -31.9222   -2.3106 H           1 GMY       0.0234
     61 H21        27.4966  -30.7116   -3.5529 H           1 GMY       0.0234
     62 H22        27.9574  -32.4096   -3.7823 H           1 GMY       0.0234
     63 H23        29.6402  -31.0541   -7.0641 H           1 GMY       0.0524
     64 H24        28.0127  -30.3510   -7.1237 H           1 GMY       0.0524
     65 H25        28.5247  -31.5561   -8.3396 H           1 GMY       0.0524
     66 H26        25.1054  -31.5916   -8.1176 H           1 GMY       0.2101
     67 H27        23.5739  -35.0648   -9.1997 H           1 GMY       0.0247
     68 H28        25.1692  -34.7588   -9.9281 H           1 GMY       0.0247
     69 H29        24.0388  -33.4192   -9.6420 H           1 GMY       0.0247
     70 H30        22.8585  -35.5296   -6.2871 H           1 GMY       0.0376
     71 H31        23.8691  -34.7388   -5.0543 H           1 GMY       0.0376
     72 H32        23.3032  -36.3905   -4.8263 H           1 GMY       0.0376
     73 H33        22.8845  -40.2755   -8.2831 H           1 GMY       0.1831
     74 H34        22.6836  -40.1913   -6.6181 H           1 GMY       0.1831
     75 H35        27.5249  -40.3194   -3.2064 H           1 GMY       0.0527
     76 H36        26.0279  -39.6318   -2.5654 H           1 GMY       0.0527
     77 H37        27.5671  -38.7601   -2.3916 H           1 GMY       0.0527
     78 H38        27.2124  -34.9353   -0.4247 H           1 GMY       0.0384
     79 H39        26.3476  -35.6951    0.8973 H           1 GMY       0.0384
     80 H40        26.0794  -33.9831    0.5198 H           1 GMY       0.0384
@<TRIPOS>BOND
     1     1     2   1
     2     1     6   2
     3     1     7   1
     4     2     3   1
     5     2    23   2
     6     3     4   2
     7     3    22   1
     8     4     5   1
     9     5     6   1
    10     5    24   2
    11     6    25   1
    12     7     8   1
    13     8     9   1
    14     8    27   1
    15     9    10   1
    16    10    11   1
    17    10    28   1
    18    11    12   1
    19    11    30   1
    20    12    13   1
    21    12    31   1
    22    13    14   2
    23    14    15   1
    24    14    32   1
    25    15    16   1
    26    15    33   1
    27    16    17   1
    28    16    37   1
    29    17    18   2
    30    18    19   1
    31    19    20   2
    32    20    21   1
    33    20    39   1
    34    21    22  am
    35    21    40   2
    36    25    26   1
    37    28    29   1
    38    33    34   1
    39    34    35   2
    40    34    36  am
    41    37    38   1
    42     4    41   1
    43     7    42   1
    44     7    43   1
    45     8    44   1
    46     9    45   1
    47     9    46   1
    48    10    47   1
    49    11    48   1
    50    12    49   1
    51    13    50   1
    52    15    51   1
    53    16    52   1
    54    17    53   1
    55    18    54   1
    56    19    55   1
    57    22    56   1
    58    26    57   1
    59    26    58   1
    60    26    59   1
    61    27    60   1
    62    27    61   1
    63    27    62   1
    64    29    63   1
    65    29    64   1
    66    29    65   1
    67    30    66   1
    68    31    67   1
    69    31    68   1
    70    31    69   1
    71    32    70   1
    72    32    71   1
    73    32    72   1
    74    36    73   1
    75    36    74   1
    76    38    75   1
    77    38    76   1
    78    38    77   1
    79    39    78   1
    80    39    79   1
    81    39    80   1
@<TRIPOS>SUBSTRUCTURE
     1  GMY      1

