@<TRIPOS>MOLECULE
2yge_ligand_055
    80    81
SMALL
GAST_HUCK
****
This file was generated by PARSER (from files_GN.cpp)

@<TRIPOS>ATOM
      1 C1         24.4973  -37.1401   -5.5004 C.2         1 GMY       0.0496
      2 C2         23.4043  -36.7973   -6.2704 C.2         1 GMY       0.1905
      3 C3         22.2756  -36.2728   -5.6803 C.2         1 GMY       0.1367
      4 C4         22.1039  -36.4142   -4.3453 C.2         1 GMY       0.0078
      5 C5         23.1189  -36.9051   -3.5807 C.2         1 GMY       0.1522
      6 C6         24.3523  -37.1729   -4.1395 C.2         1 GMY       0.1484
      7 C7         25.8177  -37.3276   -6.1524 C.3         1 GMY      -0.0163
      8 C8         26.6749  -35.9960   -6.2310 C.3         1 GMY      -0.0344
      9 C9         28.0319  -36.1729   -5.4734 C.3         1 GMY      -0.0200
     10 C10        28.8030  -34.8444   -5.1471 C.3         1 GMY       0.0859
     11 C11        28.8614  -34.5296   -3.6138 C.3         1 GMY       0.0868
     12 C12        27.4643  -34.2140   -2.9552 C.3         1 GMY      -0.0094
     13 C13        26.9546  -32.9047   -3.3752 C.2         1 GMY      -0.1006
     14 C14        25.6718  -32.4590   -3.3141 C.2         1 GMY      -0.0457
     15 C15        25.3751  -31.0755   -3.7285 C.3         1 GMY       0.1504
     16 C16        24.4562  -30.9622   -4.9844 C.3         1 GMY       0.1288
     17 C17        25.0412  -31.7007   -6.1223 C.2         1 GMY      -0.0424
     18 C18        24.5426  -32.7364   -6.7986 C.2         1 GMY      -0.0729
     19 C19        23.3183  -33.3342   -6.6581 C.2         1 GMY      -0.0656
     20 C20        22.6422  -34.0266   -7.6034 C.2         1 GMY       0.0245
     21 C21        21.4579  -34.6413   -7.2520 C.2         1 GMY       0.2316
     22 N22        21.3250  -35.6108   -6.3494 N.am        1 GMY      -0.2158
     23 O23        23.3195  -37.1948   -7.4253 O.2         1 GMY      -0.3575
     24 O24        22.9332  -37.0175   -2.3743 O.2         1 GMY      -0.3865
     25 O25        25.4171  -37.1808   -3.3099 O.3         1 GMY      -0.3151
     26 C26        25.9783  -38.4926   -3.0510 C.3         1 GMY       0.0602
     27 C27        26.8779  -35.5572   -7.7058 C.3         1 GMY      -0.0609
     28 O28        30.1748  -34.9121   -5.6018 O.3         1 GMY      -0.3771
     29 C29        30.4174  -34.9040   -7.0203 C.3         1 GMY       0.0369
     30 O30        29.5238  -35.6187   -2.9692 O.3         1 GMY      -0.3877
     31 C31        27.4638  -34.3153   -1.3922 C.3         1 GMY      -0.0567
     32 C32        24.5740  -33.3276   -2.8862 C.3         1 GMY      -0.0373
     33 O33        24.7990  -30.3852   -2.5971 O.3         1 GMY      -0.2436
     34 C34        25.1186  -29.1444   -2.1423 C.2         1 GMY       0.3194
     35 O35        26.0648  -28.3873   -2.7347 O.2         1 GMY      -0.3776
     36 N36        24.4818  -28.6209   -1.0763 N.am        1 GMY      -0.2762
     37 O37        24.3712  -29.5519   -5.2582 O.3         1 GMY      -0.3598
     38 C38        23.5708  -29.1320   -6.3724 C.3         1 GMY       0.0406
     39 C39        23.0204  -34.1574   -9.0135 C.3         1 GMY      -0.0273
     40 O40        20.4196  -34.1671   -7.6686 O.2         1 GMY      -0.3753
     41 H1         21.2706  -36.0952   -3.9137 H           1 GMY       0.0327
     42 H2         25.6688  -37.7413   -7.1628 H           1 GMY       0.0392
     43 H3         26.3559  -38.1158   -5.6084 H           1 GMY       0.0392
     44 H4         26.1241  -35.1995   -5.7335 H           1 GMY       0.0317
     45 H5         28.6613  -36.8461   -6.0575 H           1 GMY       0.0295
     46 H6         27.8409  -36.7061   -4.5411 H           1 GMY       0.0295
     47 H7         28.3203  -33.9900   -5.6306 H           1 GMY       0.0623
     48 H8         29.5136  -33.6689   -3.4636 H           1 GMY       0.0637
     49 H9         26.7650  -34.9636   -3.3160 H           1 GMY       0.0398
     50 H10        27.6440  -32.2669   -3.7087 H           1 GMY       0.0247
     51 H11        26.2996  -30.5515   -3.9981 H           1 GMY       0.0853
     52 H12        23.4588  -31.3259   -4.7306 H           1 GMY       0.0852
     53 H13        25.9557  -31.3993   -6.3933 H           1 GMY       0.0741
     54 H14        25.1442  -33.1357   -7.4881 H           1 GMY       0.0436
     55 H15        22.9242  -33.2927   -5.7427 H           1 GMY       0.0539
     56 H16        20.4181  -35.7562   -6.0306 H           1 GMY       0.2392
     57 H17        26.6829  -38.3823   -2.2086 H           1 GMY       0.0581
     58 H18        26.5308  -38.8683   -3.9399 H           1 GMY       0.0581
     59 H19        25.2092  -39.2118   -2.7458 H           1 GMY       0.0581
     60 H20        25.9113  -35.4390   -8.1991 H           1 GMY       0.0234
     61 H21        27.4524  -36.3018   -8.2561 H           1 GMY       0.0234
     62 H22        27.3990  -34.6061   -7.7630 H           1 GMY       0.0234
     63 H23        31.4969  -34.8888   -7.1782 H           1 GMY       0.0524
     64 H24        29.9842  -34.0138   -7.4808 H           1 GMY       0.0524
     65 H25        30.0199  -35.7940   -7.5062 H           1 GMY       0.0524
     66 H26        30.4504  -35.5938   -3.2866 H           1 GMY       0.2101
     67 H27        26.9666  -33.4705   -0.9042 H           1 GMY       0.0247
     68 H28        28.4760  -34.3712   -0.9886 H           1 GMY       0.0247
     69 H29        26.9330  -35.2179   -1.0759 H           1 GMY       0.0247
     70 H30        24.7561  -33.7232   -1.8875 H           1 GMY       0.0376
     71 H31        24.4659  -34.1575   -3.5807 H           1 GMY       0.0376
     72 H32        23.6202  -32.8024   -2.8462 H           1 GMY       0.0376
     73 H33        24.7220  -27.7345   -0.7625 H           1 GMY       0.1831
     74 H34        23.7664  -29.1082   -0.6412 H           1 GMY       0.1831
     75 H35        23.4630  -28.0472   -6.3344 H           1 GMY       0.0527
     76 H36        22.5731  -29.5817   -6.3422 H           1 GMY       0.0527
     77 H37        24.0734  -29.3824   -7.3058 H           1 GMY       0.0527
     78 H38        23.9004  -33.5788   -9.2873 H           1 GMY       0.0384
     79 H39        22.2105  -33.8123   -9.6560 H           1 GMY       0.0384
     80 H40        23.2255  -35.1985   -9.2513 H           1 GMY       0.0384
@<TRIPOS>BOND
     1     1     2   1
     2     1     6   2
     3     1     7   1
     4     2     3   1
     5     2    23   2
     6     3     4   2
     7     3    22   1
     8     4     5   1
     9     5     6   1
    10     5    24   2
    11     6    25   1
    12     7     8   1
    13     8     9   1
    14     8    27   1
    15     9    10   1
    16    10    11   1
    17    10    28   1
    18    11    12   1
    19    11    30   1
    20    12    13   1
    21    12    31   1
    22    13    14   2
    23    14    15   1
    24    14    32   1
    25    15    16   1
    26    15    33   1
    27    16    17   1
    28    16    37   1
    29    17    18   2
    30    18    19   1
    31    19    20   2
    32    20    21   1
    33    20    39   1
    34    21    22  am
    35    21    40   2
    36    25    26   1
    37    28    29   1
    38    33    34   1
    39    34    35   2
    40    34    36  am
    41    37    38   1
    42     4    41   1
    43     7    42   1
    44     7    43   1
    45     8    44   1
    46     9    45   1
    47     9    46   1
    48    10    47   1
    49    11    48   1
    50    12    49   1
    51    13    50   1
    52    15    51   1
    53    16    52   1
    54    17    53   1
    55    18    54   1
    56    19    55   1
    57    22    56   1
    58    26    57   1
    59    26    58   1
    60    26    59   1
    61    27    60   1
    62    27    61   1
    63    27    62   1
    64    29    63   1
    65    29    64   1
    66    29    65   1
    67    30    66   1
    68    31    67   1
    69    31    68   1
    70    31    69   1
    71    32    70   1
    72    32    71   1
    73    32    72   1
    74    36    73   1
    75    36    74   1
    76    38    75   1
    77    38    76   1
    78    38    77   1
    79    39    78   1
    80    39    79   1
    81    39    80   1
@<TRIPOS>SUBSTRUCTURE
     1  GMY      1

