@<TRIPOS>MOLECULE
2yge_ligand_014
    80    81
SMALL
GAST_HUCK
****
This file was generated by PARSER (from files_GN.cpp)

@<TRIPOS>ATOM
      1 C1         24.8745  -36.4580   -3.1695 C.2         1 GMY       0.0496
      2 C2         23.9929  -37.4381   -3.6315 C.2         1 GMY       0.1905
      3 C3         22.7255  -37.5767   -3.0874 C.2         1 GMY       0.1367
      4 C4         22.3378  -36.7084   -2.1238 C.2         1 GMY       0.0078
      5 C5         23.1517  -35.6841   -1.7311 C.2         1 GMY       0.1522
      6 C6         24.4604  -35.6428   -2.1603 C.2         1 GMY       0.1484
      7 C7         26.2229  -36.3446   -3.7669 C.3         1 GMY      -0.0163
      8 C8         26.2246  -35.8302   -5.2502 C.3         1 GMY      -0.0344
      9 C9         25.8766  -34.3045   -5.3417 C.3         1 GMY      -0.0200
     10 C10        25.1227  -33.8411   -6.6316 C.3         1 GMY       0.0859
     11 C11        24.7390  -32.3207   -6.6006 C.3         1 GMY       0.0868
     12 C12        23.4842  -31.9764   -5.7175 C.3         1 GMY      -0.0094
     13 C13        22.2390  -32.4558   -6.3349 C.2         1 GMY      -0.1006
     14 C14        21.2435  -33.1987   -5.7951 C.2         1 GMY      -0.0457
     15 C15        20.0321  -33.4834   -6.6049 C.3         1 GMY       0.1504
     16 C16        19.8951  -34.9772   -7.0258 C.3         1 GMY       0.1288
     17 C17        21.1016  -35.5261   -7.6452 C.2         1 GMY      -0.0424
     18 C18        21.8479  -36.5532   -7.1968 C.2         1 GMY      -0.0729
     19 C19        21.6351  -37.2341   -6.0416 C.2         1 GMY      -0.0656
     20 C20        21.7817  -38.5616   -5.8235 C.2         1 GMY       0.0245
     21 C21        21.5017  -39.0648   -4.5754 C.2         1 GMY       0.2316
     22 N22        21.8606  -38.5607   -3.3933 N.am        1 GMY      -0.2158
     23 O23        24.3778  -38.2777   -4.4344 O.2         1 GMY      -0.3575
     24 O24        22.6727  -34.7305   -1.1271 O.2         1 GMY      -0.3865
     25 O25        25.2900  -34.7115   -1.6399 O.3         1 GMY      -0.3151
     26 C26        25.5479  -34.8448   -0.2235 C.3         1 GMY       0.0602
     27 C27        27.5910  -36.1562   -5.9258 C.3         1 GMY      -0.0609
     28 O28        25.9673  -34.1003   -7.7766 O.3         1 GMY      -0.3771
     29 C29        25.2987  -34.4273   -9.0150 C.3         1 GMY       0.0369
     30 O30        25.8941  -31.5661   -6.2163 O.3         1 GMY      -0.3877
     31 C31        23.3248  -30.4491   -5.4920 C.3         1 GMY      -0.0567
     32 C32        21.3537  -33.7478   -4.4487 C.3         1 GMY      -0.0373
     33 O33        18.7933  -33.1635   -5.9450 O.3         1 GMY      -0.2436
     34 C34        18.5190  -32.2644   -4.9700 C.2         1 GMY       0.3194
     35 O35        19.4951  -31.5575   -4.3597 O.2         1 GMY      -0.3776
     36 N36        17.2419  -32.1244   -4.5779 N.am        1 GMY      -0.2762
     37 O37        18.8286  -35.0542   -7.9991 O.3         1 GMY      -0.3598
     38 C38        17.8712  -36.1136   -7.8190 C.3         1 GMY       0.0406
     39 C39        22.1562  -39.5225   -6.8683 C.3         1 GMY      -0.0273
     40 O40        20.6840  -39.9706   -4.4961 O.2         1 GMY      -0.3753
     41 H1         21.4255  -36.7775   -1.7253 H           1 GMY       0.0327
     42 H2         26.6910  -37.3311   -3.7095 H           1 GMY       0.0392
     43 H3         26.8759  -35.6837   -3.1925 H           1 GMY       0.0392
     44 H4         25.4664  -36.3841   -5.8107 H           1 GMY       0.0317
     45 H5         26.7976  -33.7243   -5.2261 H           1 GMY       0.0295
     46 H6         25.2429  -34.0416   -4.4949 H           1 GMY       0.0295
     47 H7         24.2074  -34.4390   -6.6954 H           1 GMY       0.0623
     48 H8         24.5240  -32.0023   -7.6226 H           1 GMY       0.0637
     49 H9         23.6319  -32.4155   -4.7303 H           1 GMY       0.0398
     50 H10        22.1003  -32.1378   -7.2662 H           1 GMY       0.0247
     51 H11        20.0236  -32.8825   -7.5241 H           1 GMY       0.0853
     52 H12        19.6206  -35.5342   -6.1231 H           1 GMY       0.0852
     53 H13        21.3922  -35.0926   -8.4935 H           1 GMY       0.0741
     54 H14        22.6473  -36.7955   -7.7340 H           1 GMY       0.0436
     55 H15        21.3641  -36.6721   -5.2702 H           1 GMY       0.0539
     56 H16        21.3673  -38.9160   -2.6354 H           1 GMY       0.2392
     57 H17        26.3169  -34.1175    0.0510 H           1 GMY       0.0581
     58 H18        25.9189  -35.8402    0.0395 H           1 GMY       0.0581
     59 H19        24.6457  -34.6344    0.3593 H           1 GMY       0.0581
     60 H20        27.7791  -37.2308   -5.8998 H           1 GMY       0.0234
     61 H21        28.4096  -35.6500   -5.4081 H           1 GMY       0.0234
     62 H22        27.5968  -35.8468   -6.9708 H           1 GMY       0.0234
     63 H23        26.0535  -34.5269   -9.8009 H           1 GMY       0.0524
     64 H24        24.5916  -33.6448   -9.3178 H           1 GMY       0.0524
     65 H25        24.7680  -35.3833   -8.9232 H           1 GMY       0.0524
     66 H26        25.7456  -30.6565   -6.5529 H           1 GMY       0.2101
     67 H27        22.4067  -30.2461   -4.9423 H           1 GMY       0.0247
     68 H28        23.2883  -29.9181   -6.4441 H           1 GMY       0.0247
     69 H29        24.1563  -30.0594   -4.9047 H           1 GMY       0.0247
     70 H30        21.4607  -32.9402   -3.7221 H           1 GMY       0.0376
     71 H31        22.2253  -34.4052   -4.3943 H           1 GMY       0.0376
     72 H32        20.4809  -34.3362   -4.1649 H           1 GMY       0.0376
     73 H33        17.0197  -31.5078   -3.8607 H           1 GMY       0.1831
     74 H34        16.5368  -32.6429   -5.0069 H           1 GMY       0.1831
     75 H35        17.1713  -36.0864   -8.6553 H           1 GMY       0.0527
     76 H36        17.3052  -35.9669   -6.8922 H           1 GMY       0.0527
     77 H37        18.3634  -37.0919   -7.8044 H           1 GMY       0.0527
     78 H38        22.2237  -39.0864   -7.8652 H           1 GMY       0.0384
     79 H39        21.4232  -40.3314   -6.9337 H           1 GMY       0.0384
     80 H40        23.1287  -39.9575   -6.6311 H           1 GMY       0.0384
@<TRIPOS>BOND
     1     1     2   1
     2     1     6   2
     3     1     7   1
     4     2     3   1
     5     2    23   2
     6     3     4   2
     7     3    22   1
     8     4     5   1
     9     5     6   1
    10     5    24   2
    11     6    25   1
    12     7     8   1
    13     8     9   1
    14     8    27   1
    15     9    10   1
    16    10    11   1
    17    10    28   1
    18    11    12   1
    19    11    30   1
    20    12    13   1
    21    12    31   1
    22    13    14   2
    23    14    15   1
    24    14    32   1
    25    15    16   1
    26    15    33   1
    27    16    17   1
    28    16    37   1
    29    17    18   2
    30    18    19   1
    31    19    20   2
    32    20    21   1
    33    20    39   1
    34    21    22  am
    35    21    40   2
    36    25    26   1
    37    28    29   1
    38    33    34   1
    39    34    35   2
    40    34    36  am
    41    37    38   1
    42     4    41   1
    43     7    42   1
    44     7    43   1
    45     8    44   1
    46     9    45   1
    47     9    46   1
    48    10    47   1
    49    11    48   1
    50    12    49   1
    51    13    50   1
    52    15    51   1
    53    16    52   1
    54    17    53   1
    55    18    54   1
    56    19    55   1
    57    22    56   1
    58    26    57   1
    59    26    58   1
    60    26    59   1
    61    27    60   1
    62    27    61   1
    63    27    62   1
    64    29    63   1
    65    29    64   1
    66    29    65   1
    67    30    66   1
    68    31    67   1
    69    31    68   1
    70    31    69   1
    71    32    70   1
    72    32    71   1
    73    32    72   1
    74    36    73   1
    75    36    74   1
    76    38    75   1
    77    38    76   1
    78    38    77   1
    79    39    78   1
    80    39    79   1
    81    39    80   1
@<TRIPOS>SUBSTRUCTURE
     1  GMY      1

