@<TRIPOS>MOLECULE
2yge_ligand_053
    80    81
SMALL
GAST_HUCK
****
This file was generated by PARSER (from files_GN.cpp)

@<TRIPOS>ATOM
      1 C1         25.0510  -36.8303   -6.8970 C.2         1 GMY       0.0496
      2 C2         25.5465  -35.7435   -7.6066 C.2         1 GMY       0.1905
      3 C3         24.6994  -34.9001   -8.3049 C.2         1 GMY       0.1367
      4 C4         23.4188  -35.2895   -8.4994 C.2         1 GMY       0.0078
      5 C5         22.9322  -36.4225   -7.9045 C.2         1 GMY       0.1522
      6 C6         23.7462  -37.1774   -7.0790 C.2         1 GMY       0.1484
      7 C7         25.8951  -37.4853   -5.8789 C.3         1 GMY      -0.0163
      8 C8         25.8197  -36.7948   -4.4664 C.3         1 GMY      -0.0344
      9 C9         25.1417  -37.7141   -3.3976 C.3         1 GMY      -0.0200
     10 C10        24.7109  -37.0265   -2.0497 C.3         1 GMY       0.0859
     11 C11        23.1774  -37.1691   -1.7440 C.3         1 GMY       0.0868
     12 C12        22.2522  -36.3080   -2.6735 C.3         1 GMY      -0.0094
     13 C13        22.5239  -34.8784   -2.5167 C.2         1 GMY      -0.1006
     14 C14        22.4906  -33.9221   -3.4724 C.2         1 GMY      -0.0457
     15 C15        22.5992  -32.4989   -3.0906 C.3         1 GMY       0.1504
     16 C16        23.8260  -31.7535   -3.7240 C.3         1 GMY       0.1288
     17 C17        25.0746  -32.5274   -3.6623 C.2         1 GMY      -0.0424
     18 C18        25.8427  -32.9410   -4.6873 C.2         1 GMY      -0.0729
     19 C19        25.5373  -32.8440   -6.0056 C.2         1 GMY      -0.0656
     20 C20        26.4031  -32.7580   -7.0422 C.2         1 GMY       0.0245
     21 C21        25.8934  -32.7882   -8.3163 C.2         1 GMY       0.2316
     22 N22        25.0662  -33.7068   -8.8123 N.am        1 GMY      -0.2158
     23 O23        26.7449  -35.6778   -7.8570 O.2         1 GMY      -0.3575
     24 O24        21.7423  -36.6830   -8.0231 O.2         1 GMY      -0.3865
     25 O25        23.1761  -38.1564   -6.3494 O.3         1 GMY      -0.3151
     26 C26        22.9418  -39.3824   -7.0683 C.3         1 GMY       0.0602
     27 C27        27.2159  -36.3092   -3.9912 C.3         1 GMY      -0.0609
     28 O28        25.5280  -37.5909   -0.9906 O.3         1 GMY      -0.3771
     29 C29        25.3267  -37.1285    0.3641 C.3         1 GMY       0.0369
     30 O30        22.8327  -38.5535   -1.8104 O.3         1 GMY      -0.3877
     31 C31        20.7468  -36.5341   -2.3668 C.3         1 GMY      -0.0567
     32 C32        22.2492  -34.2696   -4.8776 C.3         1 GMY      -0.0373
     33 O33        21.3598  -31.8840   -3.4854 O.3         1 GMY      -0.2436
     34 C34        20.0941  -32.2903   -3.1527 C.2         1 GMY       0.3194
     35 O35        19.8802  -33.3071   -2.2827 O.2         1 GMY      -0.3776
     36 N36        19.0354  -31.6932   -3.7164 N.am        1 GMY      -0.2762
     37 O37        23.9871  -30.4241   -3.1777 O.3         1 GMY      -0.3598
     38 C38        24.8038  -30.1704   -2.0189 C.3         1 GMY       0.0406
     39 C39        27.8527  -32.5907   -6.9131 C.3         1 GMY      -0.0273
     40 O40        26.0326  -31.7877   -9.0045 O.2         1 GMY      -0.3753
     41 H1         22.7991  -34.7093   -9.0218 H           1 GMY       0.0327
     42 H2         26.9288  -37.5169   -6.2306 H           1 GMY       0.0392
     43 H3         25.6296  -38.5404   -5.8037 H           1 GMY       0.0392
     44 H4         25.1975  -35.8991   -4.5463 H           1 GMY       0.0317
     45 H5         25.8101  -38.5553   -3.1867 H           1 GMY       0.0295
     46 H6         24.2628  -38.1541   -3.8696 H           1 GMY       0.0295
     47 H7         24.9501  -35.9623   -2.1060 H           1 GMY       0.0623
     48 H8         22.9911  -36.8537   -0.7130 H           1 GMY       0.0637
     49 H9         22.4260  -36.6316   -3.7024 H           1 GMY       0.0398
     50 H10        22.6340  -34.5781   -1.5731 H           1 GMY       0.0247
     51 H11        22.6817  -32.3733   -2.0103 H           1 GMY       0.0853
     52 H12        23.5592  -31.5596   -4.7651 H           1 GMY       0.0852
     53 H13        25.3950  -32.7627   -2.7496 H           1 GMY       0.0741
     54 H14        26.6700  -33.4327   -4.4469 H           1 GMY       0.0436
     55 H15        24.5709  -32.9220   -6.2273 H           1 GMY       0.0539
     56 H16        24.5651  -33.4207   -9.5942 H           1 GMY       0.2392
     57 H17        22.4791  -40.0914   -6.3818 H           1 GMY       0.0581
     58 H18        23.8748  -39.8215   -7.4304 H           1 GMY       0.0581
     59 H19        22.2608  -39.2328   -7.9098 H           1 GMY       0.0581
     60 H20        27.6850  -35.6964   -4.7620 H           1 GMY       0.0234
     61 H21        27.8692  -37.1577   -3.7772 H           1 GMY       0.0234
     62 H22        27.1260  -35.6987   -3.0929 H           1 GMY       0.0234
     63 H23        26.1323  -37.5287    0.9855 H           1 GMY       0.0524
     64 H24        24.3774  -37.4871    0.7717 H           1 GMY       0.0524
     65 H25        25.3671  -36.0359    0.4279 H           1 GMY       0.0524
     66 H26        21.9435  -38.6347   -1.4191 H           1 GMY       0.2101
     67 H27        20.1309  -35.9352   -3.0436 H           1 GMY       0.0247
     68 H28        20.5000  -36.2506   -1.3399 H           1 GMY       0.0247
     69 H29        20.4818  -37.5837   -2.5049 H           1 GMY       0.0247
     70 H30        21.3141  -34.8250   -4.9748 H           1 GMY       0.0376
     71 H31        23.0683  -34.8827   -5.2555 H           1 GMY       0.0376
     72 H32        22.1685  -33.3911   -5.5161 H           1 GMY       0.0376
     73 H33        18.1353  -31.9871   -3.4912 H           1 GMY       0.1831
     74 H34        19.1594  -30.9941   -4.3795 H           1 GMY       0.1831
     75 H35        24.6015  -29.1637   -1.6542 H           1 GMY       0.0527
     76 H36        25.8598  -30.2345   -2.2831 H           1 GMY       0.0527
     77 H37        24.5884  -30.8714   -1.2140 H           1 GMY       0.0527
     78 H38        28.1938  -32.5227   -5.8825 H           1 GMY       0.0384
     79 H39        28.1746  -31.6748   -7.4131 H           1 GMY       0.0384
     80 H40        28.3661  -33.4343   -7.3777 H           1 GMY       0.0384
@<TRIPOS>BOND
     1     1     2   1
     2     1     6   2
     3     1     7   1
     4     2     3   1
     5     2    23   2
     6     3     4   2
     7     3    22   1
     8     4     5   1
     9     5     6   1
    10     5    24   2
    11     6    25   1
    12     7     8   1
    13     8     9   1
    14     8    27   1
    15     9    10   1
    16    10    11   1
    17    10    28   1
    18    11    12   1
    19    11    30   1
    20    12    13   1
    21    12    31   1
    22    13    14   2
    23    14    15   1
    24    14    32   1
    25    15    16   1
    26    15    33   1
    27    16    17   1
    28    16    37   1
    29    17    18   2
    30    18    19   1
    31    19    20   2
    32    20    21   1
    33    20    39   1
    34    21    22  am
    35    21    40   2
    36    25    26   1
    37    28    29   1
    38    33    34   1
    39    34    35   2
    40    34    36  am
    41    37    38   1
    42     4    41   1
    43     7    42   1
    44     7    43   1
    45     8    44   1
    46     9    45   1
    47     9    46   1
    48    10    47   1
    49    11    48   1
    50    12    49   1
    51    13    50   1
    52    15    51   1
    53    16    52   1
    54    17    53   1
    55    18    54   1
    56    19    55   1
    57    22    56   1
    58    26    57   1
    59    26    58   1
    60    26    59   1
    61    27    60   1
    62    27    61   1
    63    27    62   1
    64    29    63   1
    65    29    64   1
    66    29    65   1
    67    30    66   1
    68    31    67   1
    69    31    68   1
    70    31    69   1
    71    32    70   1
    72    32    71   1
    73    32    72   1
    74    36    73   1
    75    36    74   1
    76    38    75   1
    77    38    76   1
    78    38    77   1
    79    39    78   1
    80    39    79   1
    81    39    80   1
@<TRIPOS>SUBSTRUCTURE
     1  GMY      1

