@<TRIPOS>MOLECULE
2yge_ligand_062
    80    81
SMALL
GAST_HUCK
****
This file was generated by PARSER (from files_GN.cpp)

@<TRIPOS>ATOM
      1 C1         19.1139  -35.2285   -7.4975 C.2         1 GMY       0.0496
      2 C2         17.8697  -34.6842   -7.7846 C.2         1 GMY       0.1905
      3 C3         16.7259  -35.1953   -7.2027 C.2         1 GMY       0.1367
      4 C4         16.7986  -36.3764   -6.5522 C.2         1 GMY       0.0078
      5 C5         18.0035  -36.9905   -6.3551 C.2         1 GMY       0.1522
      6 C6         19.1671  -36.3998   -6.8045 C.2         1 GMY       0.1484
      7 C7         20.3307  -34.4676   -7.8230 C.3         1 GMY      -0.0163
      8 C8         20.7005  -33.3993   -6.7261 C.3         1 GMY      -0.0344
      9 C9         22.0812  -33.7169   -6.0602 C.3         1 GMY      -0.0200
     10 C10        22.4189  -32.9528   -4.7271 C.3         1 GMY       0.0859
     11 C11        22.6436  -33.8935   -3.4948 C.3         1 GMY       0.0868
     12 C12        21.3508  -34.5956   -2.9407 C.3         1 GMY      -0.0094
     13 C13        20.3895  -33.6225   -2.4041 C.2         1 GMY      -0.1006
     14 C14        19.0363  -33.6780   -2.4395 C.2         1 GMY      -0.0457
     15 C15        18.2462  -32.6211   -1.7620 C.3         1 GMY       0.1504
     16 C16        17.2678  -31.8296   -2.6840 C.3         1 GMY       0.1288
     17 C17        17.9483  -31.2749   -3.8590 C.2         1 GMY      -0.0424
     18 C18        17.6815  -31.4937   -5.1501 C.2         1 GMY      -0.0729
     19 C19        16.7744  -32.3793   -5.6462 C.2         1 GMY      -0.0656
     20 C20        16.0696  -32.2787   -6.7987 C.2         1 GMY       0.0245
     21 C21        15.2208  -33.3013   -7.1374 C.2         1 GMY       0.2316
     22 N22        15.5263  -34.5910   -7.2511 N.am        1 GMY      -0.2158
     23 O23        17.7341  -33.9697   -8.7698 O.2         1 GMY      -0.3575
     24 O24        18.0422  -38.0000   -5.6630 O.2         1 GMY      -0.3865
     25 O25        20.3452  -36.9219   -6.4138 O.3         1 GMY      -0.3151
     26 C26        20.8405  -37.9754   -7.2614 C.3         1 GMY       0.0602
     27 C27        20.6507  -31.9596   -7.3135 C.3         1 GMY      -0.0609
     28 O28        23.6439  -32.1932   -4.8623 O.3         1 GMY      -0.3771
     29 C29        23.5777  -30.7701   -4.6486 C.3         1 GMY       0.0369
     30 O30        23.6477  -34.8606   -3.8210 O.3         1 GMY      -0.3877
     31 C31        21.7007  -35.6201   -1.8188 C.3         1 GMY      -0.0567
     32 C32        18.3385  -34.7988   -3.0716 C.3         1 GMY      -0.0373
     33 O33        17.4840  -33.1962   -0.6840 O.3         1 GMY      -0.2436
     34 C34        17.9123  -34.0898    0.2484 C.2         1 GMY       0.3194
     35 O35        19.1865  -34.5502    0.2732 O.2         1 GMY      -0.3776
     36 N36        17.0652  -34.4836    1.2069 N.am        1 GMY      -0.2762
     37 O37        16.6739  -30.7691   -1.8976 O.3         1 GMY      -0.3598
     38 C38        17.3370  -29.4832   -1.9012 C.3         1 GMY       0.0406
     39 C39        16.0939  -31.1204   -7.6987 C.3         1 GMY      -0.0273
     40 O40        14.0259  -33.0485   -7.1936 O.2         1 GMY      -0.3753
     41 H1         15.9775  -36.7715   -6.1476 H           1 GMY       0.0327
     42 H2         20.2099  -33.9936   -8.7994 H           1 GMY       0.0392
     43 H3         21.1657  -35.1506   -7.9880 H           1 GMY       0.0392
     44 H4         19.9528  -33.4285   -5.9276 H           1 GMY       0.0317
     45 H5         22.8678  -33.5302   -6.7933 H           1 GMY       0.0295
     46 H6         22.1152  -34.7903   -5.8649 H           1 GMY       0.0295
     47 H7         21.6048  -32.2669   -4.4726 H           1 GMY       0.0623
     48 H8         23.0661  -33.2901   -2.6812 H           1 GMY       0.0637
     49 H9         20.9045  -35.1600   -3.7621 H           1 GMY       0.0398
     50 H10        20.8015  -32.8768   -1.8890 H           1 GMY       0.0247
     51 H11        18.8980  -31.8657   -1.3087 H           1 GMY       0.0853
     52 H12        16.4550  -32.5095   -2.9679 H           1 GMY       0.0852
     53 H13        18.6719  -30.6152   -3.6540 H           1 GMY       0.0741
     54 H14        18.2441  -31.0006   -5.8024 H           1 GMY       0.0436
     55 H15        16.6635  -33.2118   -5.1134 H           1 GMY       0.0539
     56 H16        14.7615  -35.1891   -7.2778 H           1 GMY       0.2392
     57 H17        21.8132  -38.2877   -6.8811 H           1 GMY       0.0581
     58 H18        20.9709  -37.6347   -8.2911 H           1 GMY       0.0581
     59 H19        20.1766  -38.8426   -7.2491 H           1 GMY       0.0581
     60 H20        19.6739  -31.7690   -7.7599 H           1 GMY       0.0234
     61 H21        21.4086  -31.8375   -8.0868 H           1 GMY       0.0234
     62 H22        20.8207  -31.2095   -6.5409 H           1 GMY       0.0234
     63 H23        24.5908  -30.3674   -4.6991 H           1 GMY       0.0524
     64 H24        23.1649  -30.5426   -3.6620 H           1 GMY       0.0524
     65 H25        22.9767  -30.2847   -5.4218 H           1 GMY       0.0524
     66 H26        24.4727  -34.3386   -3.9216 H           1 GMY       0.2101
     67 H27        20.7976  -36.0925   -1.4225 H           1 GMY       0.0247
     68 H28        22.2231  -35.1283   -0.9926 H           1 GMY       0.0247
     69 H29        22.3427  -36.4149   -2.2094 H           1 GMY       0.0247
     70 H30        18.6570  -35.7459   -2.6339 H           1 GMY       0.0376
     71 H31        18.5514  -34.8149   -4.1408 H           1 GMY       0.0376
     72 H32        17.2562  -34.7427   -2.9515 H           1 GMY       0.0376
     73 H33        17.3637  -35.1026    1.8917 H           1 GMY       0.1831
     74 H34        16.1571  -34.1448    1.2221 H           1 GMY       0.1831
     75 H35        16.7660  -28.7941   -1.2935 H           1 GMY       0.0527
     76 H36        17.3855  -29.0796   -2.9231 H           1 GMY       0.0527
     77 H37        18.3500  -29.5638   -1.4944 H           1 GMY       0.0527
     78 H38        16.7641  -30.3245   -7.3807 H           1 GMY       0.0384
     79 H39        15.0970  -30.6858   -7.7745 H           1 GMY       0.0384
     80 H40        16.4053  -31.4352   -8.6957 H           1 GMY       0.0384
@<TRIPOS>BOND
     1     1     2   1
     2     1     6   2
     3     1     7   1
     4     2     3   1
     5     2    23   2
     6     3     4   2
     7     3    22   1
     8     4     5   1
     9     5     6   1
    10     5    24   2
    11     6    25   1
    12     7     8   1
    13     8     9   1
    14     8    27   1
    15     9    10   1
    16    10    11   1
    17    10    28   1
    18    11    12   1
    19    11    30   1
    20    12    13   1
    21    12    31   1
    22    13    14   2
    23    14    15   1
    24    14    32   1
    25    15    16   1
    26    15    33   1
    27    16    17   1
    28    16    37   1
    29    17    18   2
    30    18    19   1
    31    19    20   2
    32    20    21   1
    33    20    39   1
    34    21    22  am
    35    21    40   2
    36    25    26   1
    37    28    29   1
    38    33    34   1
    39    34    35   2
    40    34    36  am
    41    37    38   1
    42     4    41   1
    43     7    42   1
    44     7    43   1
    45     8    44   1
    46     9    45   1
    47     9    46   1
    48    10    47   1
    49    11    48   1
    50    12    49   1
    51    13    50   1
    52    15    51   1
    53    16    52   1
    54    17    53   1
    55    18    54   1
    56    19    55   1
    57    22    56   1
    58    26    57   1
    59    26    58   1
    60    26    59   1
    61    27    60   1
    62    27    61   1
    63    27    62   1
    64    29    63   1
    65    29    64   1
    66    29    65   1
    67    30    66   1
    68    31    67   1
    69    31    68   1
    70    31    69   1
    71    32    70   1
    72    32    71   1
    73    32    72   1
    74    36    73   1
    75    36    74   1
    76    38    75   1
    77    38    76   1
    78    38    77   1
    79    39    78   1
    80    39    79   1
    81    39    80   1
@<TRIPOS>SUBSTRUCTURE
     1  GMY      1

