@<TRIPOS>MOLECULE
2yge_ligand_037
    80    81
SMALL
GAST_HUCK
****
This file was generated by PARSER (from files_GN.cpp)

@<TRIPOS>ATOM
      1 C1         25.9499  -36.7069   -4.4542 C.2         1 GMY       0.0496
      2 C2         25.7412  -36.1683   -3.1829 C.2         1 GMY       0.1905
      3 C3         26.4236  -35.0345   -2.7626 C.2         1 GMY       0.1367
      4 C4         27.4628  -34.6029   -3.5110 C.2         1 GMY       0.0078
      5 C5         27.7933  -35.2190   -4.6832 C.2         1 GMY       0.1522
      6 C6         26.9987  -36.2307   -5.1911 C.2         1 GMY       0.1484
      7 C7         25.0806  -37.8121   -4.9168 C.3         1 GMY      -0.0163
      8 C8         23.5684  -37.4222   -5.1555 C.3         1 GMY      -0.0344
      9 C9         23.0483  -37.8025   -6.5815 C.3         1 GMY      -0.0200
     10 C10        21.7396  -37.0564   -7.0444 C.3         1 GMY       0.0859
     11 C11        21.8934  -36.2453   -8.3765 C.3         1 GMY       0.0868
     12 C12        22.8150  -34.9724   -8.2515 C.3         1 GMY      -0.0094
     13 C13        22.1748  -33.9066   -7.4668 C.2         1 GMY      -0.1006
     14 C14        22.6956  -33.1674   -6.4526 C.2         1 GMY      -0.0457
     15 C15        21.8392  -32.1653   -5.7613 C.3         1 GMY       0.1504
     16 C16        21.6269  -32.3650   -4.2258 C.3         1 GMY       0.1288
     17 C17        21.4209  -33.7647   -3.8325 C.2         1 GMY      -0.0424
     18 C18        22.1553  -34.4977   -2.9757 C.2         1 GMY      -0.0729
     19 C19        23.3141  -34.1217   -2.3849 C.2         1 GMY      -0.0656
     20 C20        23.8290  -34.5811   -1.2210 C.2         1 GMY       0.0245
     21 C21        25.1026  -34.2057   -0.8795 C.2         1 GMY       0.2316
     22 N22        26.2039  -34.3771   -1.6100 N.am        1 GMY      -0.2158
     23 O23        25.3296  -36.9139   -2.3017 O.2         1 GMY      -0.3575
     24 O24        28.8378  -34.8848   -5.2357 O.2         1 GMY      -0.3865
     25 O25        27.4090  -36.8330   -6.3247 O.3         1 GMY      -0.3151
     26 C26        26.9649  -36.2276   -7.5513 C.3         1 GMY       0.0602
     27 C27        22.6214  -38.0231   -4.0758 C.3         1 GMY      -0.0609
     28 O28        20.5795  -37.9214   -7.0038 O.3         1 GMY      -0.3771
     29 C29        20.3246  -38.8568   -8.0657 C.3         1 GMY       0.0369
     30 O30        22.3750  -37.1355   -9.3907 O.3         1 GMY      -0.3877
     31 C31        23.2285  -34.3926   -9.6268 C.3         1 GMY      -0.0567
     32 C32        24.0879  -33.3453   -6.0382 C.3         1 GMY      -0.0373
     33 O33        22.2234  -30.7991   -6.0449 O.3         1 GMY      -0.2436
     34 C34        23.3691  -30.0598   -6.0591 C.2         1 GMY       0.3194
     35 O35        24.6099  -30.5669   -5.8112 O.2         1 GMY      -0.3776
     36 N36        23.3116  -28.7626   -6.3556 N.am        1 GMY      -0.2762
     37 O37        20.5744  -31.5243   -3.7037 O.3         1 GMY      -0.3598
     38 C38        19.1751  -31.8119   -3.9031 C.3         1 GMY       0.0406
     39 C39        23.1274  -35.4517   -0.2752 C.3         1 GMY      -0.0273
     40 O40        25.2352  -33.4939    0.1085 O.2         1 GMY      -0.3753
     41 H1         27.9830  -33.7995   -3.2232 H           1 GMY       0.0327
     42 H2         25.1406  -38.6088   -4.1767 H           1 GMY       0.0392
     43 H3         25.4790  -38.2651   -5.8265 H           1 GMY       0.0392
     44 H4         23.4798  -36.3432   -5.0636 H           1 GMY       0.0317
     45 H5         22.8974  -38.8882   -6.6233 H           1 GMY       0.0295
     46 H6         23.8410  -37.5979   -7.3065 H           1 GMY       0.0295
     47 H7         21.4967  -36.3120   -6.2908 H           1 GMY       0.0623
     48 H8         20.8928  -35.9288   -8.6971 H           1 GMY       0.0637
     49 H9         23.7378  -35.2903   -7.7852 H           1 GMY       0.0398
     50 H10        21.2465  -33.6901   -7.7643 H           1 GMY       0.0247
     51 H11        20.8374  -32.2117   -6.1884 H           1 GMY       0.0853
     52 H12        22.5137  -31.9662   -3.7452 H           1 GMY       0.0852
     53 H13        20.6324  -34.2195   -4.2435 H           1 GMY       0.0741
     54 H14        21.8390  -35.4306   -2.8169 H           1 GMY       0.0436
     55 H15        23.8841  -33.5079   -2.9123 H           1 GMY       0.0539
     56 H16        26.9746  -33.8959   -1.2756 H           1 GMY       0.2392
     57 H17        27.3756  -36.8013   -8.3780 H           1 GMY       0.0581
     58 H18        27.3121  -35.1960   -7.6544 H           1 GMY       0.0581
     59 H19        25.8825  -36.2578   -7.6306 H           1 GMY       0.0581
     60 H20        22.9768  -37.7853   -3.0724 H           1 GMY       0.0234
     61 H21        22.5676  -39.1083   -4.1781 H           1 GMY       0.0234
     62 H22        21.6076  -37.6248   -4.1764 H           1 GMY       0.0234
     63 H23        19.5175  -39.5183   -7.7515 H           1 GMY       0.0524
     64 H24        21.2001  -39.4650   -8.2938 H           1 GMY       0.0524
     65 H25        20.0008  -38.3330   -8.9654 H           1 GMY       0.0524
     66 H26        22.1368  -36.7166  -10.2483 H           1 GMY       0.2101
     67 H27        23.8708  -33.5155   -9.5028 H           1 GMY       0.0247
     68 H28        22.3473  -34.1047  -10.2063 H           1 GMY       0.0247
     69 H29        23.7971  -35.1324  -10.1929 H           1 GMY       0.0247
     70 H30        24.7569  -33.0311   -6.8428 H           1 GMY       0.0376
     71 H31        24.3002  -34.3884   -5.8012 H           1 GMY       0.0376
     72 H32        24.3409  -32.7777   -5.1473 H           1 GMY       0.0376
     73 H33        24.1369  -28.2525   -6.4029 H           1 GMY       0.1831
     74 H34        22.4561  -28.3221   -6.4846 H           1 GMY       0.1831
     75 H35        18.5939  -31.0035   -3.4541 H           1 GMY       0.0527
     76 H36        18.8849  -32.7424   -3.4098 H           1 GMY       0.0527
     77 H37        18.9108  -31.8627   -4.9605 H           1 GMY       0.0527
     78 H38        22.0939  -35.6403   -0.5535 H           1 GMY       0.0384
     79 H39        23.1078  -35.0032    0.7220 H           1 GMY       0.0384
     80 H40        23.6394  -36.4145   -0.2067 H           1 GMY       0.0384
@<TRIPOS>BOND
     1     1     2   1
     2     1     6   2
     3     1     7   1
     4     2     3   1
     5     2    23   2
     6     3     4   2
     7     3    22   1
     8     4     5   1
     9     5     6   1
    10     5    24   2
    11     6    25   1
    12     7     8   1
    13     8     9   1
    14     8    27   1
    15     9    10   1
    16    10    11   1
    17    10    28   1
    18    11    12   1
    19    11    30   1
    20    12    13   1
    21    12    31   1
    22    13    14   2
    23    14    15   1
    24    14    32   1
    25    15    16   1
    26    15    33   1
    27    16    17   1
    28    16    37   1
    29    17    18   2
    30    18    19   1
    31    19    20   2
    32    20    21   1
    33    20    39   1
    34    21    22  am
    35    21    40   2
    36    25    26   1
    37    28    29   1
    38    33    34   1
    39    34    35   2
    40    34    36  am
    41    37    38   1
    42     4    41   1
    43     7    42   1
    44     7    43   1
    45     8    44   1
    46     9    45   1
    47     9    46   1
    48    10    47   1
    49    11    48   1
    50    12    49   1
    51    13    50   1
    52    15    51   1
    53    16    52   1
    54    17    53   1
    55    18    54   1
    56    19    55   1
    57    22    56   1
    58    26    57   1
    59    26    58   1
    60    26    59   1
    61    27    60   1
    62    27    61   1
    63    27    62   1
    64    29    63   1
    65    29    64   1
    66    29    65   1
    67    30    66   1
    68    31    67   1
    69    31    68   1
    70    31    69   1
    71    32    70   1
    72    32    71   1
    73    32    72   1
    74    36    73   1
    75    36    74   1
    76    38    75   1
    77    38    76   1
    78    38    77   1
    79    39    78   1
    80    39    79   1
    81    39    80   1
@<TRIPOS>SUBSTRUCTURE
     1  GMY      1

