@<TRIPOS>MOLECULE
2yge_ligand_043
    80    81
SMALL
GAST_HUCK
****
This file was generated by PARSER (from files_GN.cpp)

@<TRIPOS>ATOM
      1 C1         22.8239  -31.7952   -3.8173 C.2         1 GMY       0.0496
      2 C2         21.5024  -32.1010   -4.0945 C.2         1 GMY       0.1905
      3 C3         21.0244  -32.0576   -5.3837 C.2         1 GMY       0.1367
      4 C4         21.7726  -31.4418   -6.3270 C.2         1 GMY       0.0078
      5 C5         23.0510  -31.0362   -6.0469 C.2         1 GMY       0.1522
      6 C6         23.5920  -31.2425   -4.7966 C.2         1 GMY       0.1484
      7 C7         23.3835  -32.2172   -2.5231 C.3         1 GMY      -0.0163
      8 C8         23.7749  -33.7390   -2.5158 C.3         1 GMY      -0.0344
      9 C9         25.3225  -33.8847   -2.6395 C.3         1 GMY      -0.0200
     10 C10        25.8557  -35.3418   -2.8142 C.3         1 GMY       0.0859
     11 C11        27.1481  -35.4298   -3.6958 C.3         1 GMY       0.0868
     12 C12        26.8961  -35.2683   -5.2362 C.3         1 GMY      -0.0094
     13 C13        26.0251  -36.3269   -5.7543 C.2         1 GMY      -0.1006
     14 C14        24.8587  -36.2042   -6.4367 C.2         1 GMY      -0.0457
     15 C15        24.1243  -37.4205   -6.8460 C.3         1 GMY       0.1504
     16 C16        22.6314  -37.5133   -6.3770 C.3         1 GMY       0.1288
     17 C17        22.4653  -37.2175   -4.9488 C.2         1 GMY      -0.0424
     18 C18        21.6721  -36.2821   -4.3836 C.2         1 GMY      -0.0729
     19 C19        20.9392  -35.3273   -5.0283 C.2         1 GMY      -0.0656
     20 C20        19.8290  -34.6922   -4.5841 C.2         1 GMY       0.0245
     21 C21        19.2692  -33.7180   -5.3727 C.2         1 GMY       0.2316
     22 N22        19.8479  -32.5851   -5.7621 N.am        1 GMY      -0.2158
     23 O23        20.6796  -32.1028   -3.1866 O.2         1 GMY      -0.3575
     24 O24        23.7599  -30.6296   -6.9617 O.2         1 GMY      -0.3865
     25 O25        24.9230  -31.0935   -4.6387 O.3         1 GMY      -0.3151
     26 C26        25.3996  -29.7381   -4.5587 C.3         1 GMY       0.0602
     27 C27        23.1654  -34.4905   -1.2972 C.3         1 GMY      -0.0609
     28 O28        25.9718  -36.1315   -1.6040 O.3         1 GMY      -0.3771
     29 C29        26.0562  -35.5223   -0.2848 C.3         1 GMY       0.0369
     30 O30        28.1044  -34.4461   -3.2910 O.3         1 GMY      -0.3877
     31 C31        28.2220  -35.2797   -6.0556 C.3         1 GMY      -0.0567
     32 C32        24.3467  -34.8960   -6.8423 C.3         1 GMY      -0.0373
     33 O33        24.3559  -37.5636   -8.2613 O.3         1 GMY      -0.2436
     34 C34        23.5962  -37.6694   -9.3844 C.2         1 GMY       0.3194
     35 O35        22.2446  -37.6387   -9.3826 O.2         1 GMY      -0.3776
     36 N36        24.2258  -37.8137  -10.5561 N.am        1 GMY      -0.2762
     37 O37        22.2055  -38.8641   -6.6736 O.3         1 GMY      -0.3598
     38 C38        20.8439  -39.2163   -6.3794 C.3         1 GMY       0.0406
     39 C39        19.1296  -34.9792   -3.3267 C.3         1 GMY      -0.0273
     40 O40        18.1952  -33.9661   -5.9009 O.2         1 GMY      -0.3753
     41 H1         21.4202  -31.3582   -7.2547 H           1 GMY       0.0327
     42 H2         22.6609  -32.0187   -1.7306 H           1 GMY       0.0392
     43 H3         24.2414  -31.5949   -2.2509 H           1 GMY       0.0392
     44 H4         23.3439  -34.2178   -3.4022 H           1 GMY       0.0317
     45 H5         25.8101  -33.4075   -1.7886 H           1 GMY       0.0295
     46 H6         25.6224  -33.3060   -3.5114 H           1 GMY       0.0295
     47 H7         25.0853  -35.8864   -3.3569 H           1 GMY       0.0623
     48 H8         27.6084  -36.4083   -3.5336 H           1 GMY       0.0637
     49 H9         26.4583  -34.2839   -5.4023 H           1 GMY       0.0398
     50 H10        26.3537  -37.2489   -5.5702 H           1 GMY       0.0247
     51 H11        24.6049  -38.3091   -6.4218 H           1 GMY       0.0853
     52 H12        22.0437  -36.8330   -6.9895 H           1 GMY       0.0852
     53 H13        22.9704  -37.8084   -4.3247 H           1 GMY       0.0741
     54 H14        21.6794  -36.2552   -3.3897 H           1 GMY       0.0436
     55 H15        21.3054  -35.0279   -5.9027 H           1 GMY       0.0539
     56 H16        19.3960  -32.1162   -6.4852 H           1 GMY       0.2392
     57 H17        26.4827  -29.7723   -4.4429 H           1 GMY       0.0581
     58 H18        24.9847  -29.2187   -3.6934 H           1 GMY       0.0581
     59 H19        25.1731  -29.1724   -5.4651 H           1 GMY       0.0581
     60 H20        22.0733  -34.3606   -1.2796 H           1 GMY       0.0234
     61 H21        23.5800  -34.1126   -0.3664 H           1 GMY       0.0234
     62 H22        23.3638  -35.5624   -1.3600 H           1 GMY       0.0234
     63 H23        26.2758  -36.3137    0.4525 H           1 GMY       0.0524
     64 H24        25.0864  -35.0687   -0.0145 H           1 GMY       0.0524
     65 H25        26.8536  -34.7684   -0.2321 H           1 GMY       0.0524
     66 H26        28.0042  -34.3218   -2.3251 H           1 GMY       0.2101
     67 H27        28.0140  -35.1768   -7.1239 H           1 GMY       0.0247
     68 H28        28.7700  -36.2110   -5.8926 H           1 GMY       0.0247
     69 H29        28.8605  -34.4449   -5.7610 H           1 GMY       0.0247
     70 H30        25.0959  -34.3612   -7.4298 H           1 GMY       0.0376
     71 H31        24.0955  -34.3051   -5.9593 H           1 GMY       0.0376
     72 H32        23.4498  -34.9666   -7.4591 H           1 GMY       0.0376
     73 H33        23.7142  -37.9004  -11.3760 H           1 GMY       0.1831
     74 H34        25.1955  -37.8464  -10.5880 H           1 GMY       0.1831
     75 H35        20.6399  -40.1947   -6.8157 H           1 GMY       0.0527
     76 H36        20.1442  -38.4936   -6.8060 H           1 GMY       0.0527
     77 H37        20.6939  -39.2834   -5.3014 H           1 GMY       0.0527
     78 H38        19.5568  -35.8081   -2.7647 H           1 GMY       0.0384
     79 H39        18.0852  -35.2287   -3.5261 H           1 GMY       0.0384
     80 H40        19.1433  -34.1040   -2.6761 H           1 GMY       0.0384
@<TRIPOS>BOND
     1     1     2   1
     2     1     6   2
     3     1     7   1
     4     2     3   1
     5     2    23   2
     6     3     4   2
     7     3    22   1
     8     4     5   1
     9     5     6   1
    10     5    24   2
    11     6    25   1
    12     7     8   1
    13     8     9   1
    14     8    27   1
    15     9    10   1
    16    10    11   1
    17    10    28   1
    18    11    12   1
    19    11    30   1
    20    12    13   1
    21    12    31   1
    22    13    14   2
    23    14    15   1
    24    14    32   1
    25    15    16   1
    26    15    33   1
    27    16    17   1
    28    16    37   1
    29    17    18   2
    30    18    19   1
    31    19    20   2
    32    20    21   1
    33    20    39   1
    34    21    22  am
    35    21    40   2
    36    25    26   1
    37    28    29   1
    38    33    34   1
    39    34    35   2
    40    34    36  am
    41    37    38   1
    42     4    41   1
    43     7    42   1
    44     7    43   1
    45     8    44   1
    46     9    45   1
    47     9    46   1
    48    10    47   1
    49    11    48   1
    50    12    49   1
    51    13    50   1
    52    15    51   1
    53    16    52   1
    54    17    53   1
    55    18    54   1
    56    19    55   1
    57    22    56   1
    58    26    57   1
    59    26    58   1
    60    26    59   1
    61    27    60   1
    62    27    61   1
    63    27    62   1
    64    29    63   1
    65    29    64   1
    66    29    65   1
    67    30    66   1
    68    31    67   1
    69    31    68   1
    70    31    69   1
    71    32    70   1
    72    32    71   1
    73    32    72   1
    74    36    73   1
    75    36    74   1
    76    38    75   1
    77    38    76   1
    78    38    77   1
    79    39    78   1
    80    39    79   1
    81    39    80   1
@<TRIPOS>SUBSTRUCTURE
     1  GMY      1

