@<TRIPOS>MOLECULE
2yge_ligand_047
    80    81
SMALL
GAST_HUCK
****
This file was generated by PARSER (from files_GN.cpp)

@<TRIPOS>ATOM
      1 C1         22.1051  -34.3637   -1.8612 C.2         1 GMY       0.0496
      2 C2         22.7882  -35.0194   -0.8532 C.2         1 GMY       0.1905
      3 C3         23.1409  -36.3454   -0.9787 C.2         1 GMY       0.1367
      4 C4         22.5510  -37.0816   -1.9461 C.2         1 GMY       0.0078
      5 C5         21.7500  -36.4816   -2.8794 C.2         1 GMY       0.1522
      6 C6         21.5106  -35.1197   -2.8272 C.2         1 GMY       0.1484
      7 C7         22.2138  -32.8952   -1.9632 C.3         1 GMY      -0.0163
      8 C8         23.4503  -32.4340   -2.8257 C.3         1 GMY      -0.0344
      9 C9         23.0036  -32.0187   -4.2623 C.3         1 GMY      -0.0200
     10 C10        24.1369  -31.7612   -5.3085 C.3         1 GMY       0.0859
     11 C11        23.8435  -32.3862   -6.7209 C.3         1 GMY       0.0868
     12 C12        24.0729  -33.9382   -6.8151 C.3         1 GMY      -0.0094
     13 C13        25.4608  -34.2849   -6.4803 C.2         1 GMY      -0.1006
     14 C14        25.9040  -35.2613   -5.6504 C.2         1 GMY      -0.0457
     15 C15        27.3610  -35.4100   -5.3991 C.3         1 GMY       0.1504
     16 C16        27.7928  -35.4088   -3.8948 C.3         1 GMY       0.1288
     17 C17        27.4068  -34.1977   -3.1703 C.2         1 GMY      -0.0424
     18 C18        26.6588  -34.1158   -2.0506 C.2         1 GMY      -0.0729
     19 C19        26.0166  -35.1390   -1.4210 C.2         1 GMY      -0.0656
     20 C20        25.8012  -35.2939   -0.0899 C.2         1 GMY       0.0245
     21 C21        25.1507  -36.4211    0.3488 C.2         1 GMY       0.2316
     22 N22        24.0262  -36.9302   -0.1529 N.am        1 GMY      -0.2158
     23 O23        22.8012  -34.5388    0.2731 O.2         1 GMY      -0.3575
     24 O24        21.4055  -37.1275   -3.8602 O.2         1 GMY      -0.3865
     25 O25        20.8013  -34.5526   -3.8195 O.3         1 GMY      -0.3151
     26 C26        19.4475  -34.2155   -3.4697 C.3         1 GMY       0.0602
     27 C27        24.2981  -31.3280   -2.1275 C.3         1 GMY      -0.0609
     28 O28        24.5262  -30.3661   -5.3264 O.3         1 GMY      -0.3771
     29 C29        23.8382  -29.4212   -6.1640 C.3         1 GMY       0.0369
     30 O30        22.4956  -32.0667   -7.0810 O.3         1 GMY      -0.3877
     31 C31        23.7508  -34.5067   -8.2259 C.3         1 GMY      -0.0567
     32 C32        24.9708  -36.2329   -5.0727 C.3         1 GMY      -0.0373
     33 O33        27.8080  -36.6491   -5.9742 O.3         1 GMY      -0.2436
     34 C34        27.9965  -36.9330   -7.2906 C.2         1 GMY       0.3194
     35 O35        27.8088  -36.0149   -8.2689 O.2         1 GMY      -0.3776
     36 N36        28.4240  -38.1627   -7.6147 N.am        1 GMY      -0.2762
     37 O37        29.1939  -35.7033   -3.6876 O.3         1 GMY      -0.3598
     38 C38        30.2078  -35.1654   -4.5581 C.3         1 GMY       0.0406
     39 C39        26.2594  -34.3545    0.9365 C.3         1 GMY      -0.0273
     40 O40        25.7161  -37.1182    1.1790 O.2         1 GMY      -0.3753
     41 H1         22.7742  -38.0471   -2.0354 H           1 GMY       0.0327
     42 H2         22.2869  -32.4656   -0.9582 H           1 GMY       0.0392
     43 H3         21.2838  -32.4813   -2.3681 H           1 GMY       0.0392
     44 H4         24.1283  -33.2857   -2.9433 H           1 GMY       0.0317
     45 H5         22.3638  -31.1402   -4.1949 H           1 GMY       0.0295
     46 H6         22.3698  -32.8179   -4.6336 H           1 GMY       0.0295
     47 H7         25.0350  -32.2483   -4.9317 H           1 GMY       0.0623
     48 H8         24.4996  -31.9014   -7.4498 H           1 GMY       0.0637
     49 H9         23.3783  -34.4125   -6.1166 H           1 GMY       0.0398
     50 H10        26.1480  -33.7318   -6.9429 H           1 GMY       0.0247
     51 H11        27.9297  -34.6019   -5.8767 H           1 GMY       0.0853
     52 H12        27.3170  -36.2790   -3.4495 H           1 GMY       0.0852
     53 H13        27.7842  -33.3441   -3.5202 H           1 GMY       0.0741
     54 H14        26.5186  -33.2050   -1.6848 H           1 GMY       0.0436
     55 H15        25.6486  -35.8375   -2.0311 H           1 GMY       0.0539
     56 H16        23.8563  -37.8581    0.0648 H           1 GMY       0.2392
     57 H17        18.9561  -33.8363   -4.3649 H           1 GMY       0.0581
     58 H18        19.4302  -33.4379   -2.7000 H           1 GMY       0.0581
     59 H19        18.8841  -35.0902   -3.1366 H           1 GMY       0.0581
     60 H20        24.5851  -31.6439   -1.1207 H           1 GMY       0.0234
     61 H21        23.7397  -30.3976   -2.0485 H           1 GMY       0.0234
     62 H22        25.2143  -31.1337   -2.6891 H           1 GMY       0.0234
     63 H23        24.0729  -28.4187   -5.8083 H           1 GMY       0.0524
     64 H24        22.7571  -29.5468   -6.1404 H           1 GMY       0.0524
     65 H25        24.1886  -29.5133   -7.1910 H           1 GMY       0.0524
     66 H26        22.2910  -32.5849   -7.8846 H           1 GMY       0.2101
     67 H27        24.0009  -35.5679   -8.2818 H           1 GMY       0.0247
     68 H28        24.3143  -33.9803   -8.9965 H           1 GMY       0.0247
     69 H29        22.6879  -34.4041   -8.4409 H           1 GMY       0.0247
     70 H30        24.3570  -36.6783   -5.8580 H           1 GMY       0.0376
     71 H31        24.3232  -35.7363   -4.3482 H           1 GMY       0.0376
     72 H32        25.4733  -37.0558   -4.5648 H           1 GMY       0.0376
     73 H33        28.5806  -38.3960   -8.5450 H           1 GMY       0.1831
     74 H34        28.5592  -38.8255   -6.9153 H           1 GMY       0.1831
     75 H35        31.1701  -35.5851   -4.2480 H           1 GMY       0.0527
     76 H36        30.2570  -34.0771   -4.4619 H           1 GMY       0.0527
     77 H37        30.0200  -35.4484   -5.5979 H           1 GMY       0.0527
     78 H38        26.7570  -33.4745    0.5380 H           1 GMY       0.0384
     79 H39        26.9688  -34.8508    1.6001 H           1 GMY       0.0384
     80 H40        25.4084  -34.0089    1.5260 H           1 GMY       0.0384
@<TRIPOS>BOND
     1     1     2   1
     2     1     6   2
     3     1     7   1
     4     2     3   1
     5     2    23   2
     6     3     4   2
     7     3    22   1
     8     4     5   1
     9     5     6   1
    10     5    24   2
    11     6    25   1
    12     7     8   1
    13     8     9   1
    14     8    27   1
    15     9    10   1
    16    10    11   1
    17    10    28   1
    18    11    12   1
    19    11    30   1
    20    12    13   1
    21    12    31   1
    22    13    14   2
    23    14    15   1
    24    14    32   1
    25    15    16   1
    26    15    33   1
    27    16    17   1
    28    16    37   1
    29    17    18   2
    30    18    19   1
    31    19    20   2
    32    20    21   1
    33    20    39   1
    34    21    22  am
    35    21    40   2
    36    25    26   1
    37    28    29   1
    38    33    34   1
    39    34    35   2
    40    34    36  am
    41    37    38   1
    42     4    41   1
    43     7    42   1
    44     7    43   1
    45     8    44   1
    46     9    45   1
    47     9    46   1
    48    10    47   1
    49    11    48   1
    50    12    49   1
    51    13    50   1
    52    15    51   1
    53    16    52   1
    54    17    53   1
    55    18    54   1
    56    19    55   1
    57    22    56   1
    58    26    57   1
    59    26    58   1
    60    26    59   1
    61    27    60   1
    62    27    61   1
    63    27    62   1
    64    29    63   1
    65    29    64   1
    66    29    65   1
    67    30    66   1
    68    31    67   1
    69    31    68   1
    70    31    69   1
    71    32    70   1
    72    32    71   1
    73    32    72   1
    74    36    73   1
    75    36    74   1
    76    38    75   1
    77    38    76   1
    78    38    77   1
    79    39    78   1
    80    39    79   1
    81    39    80   1
@<TRIPOS>SUBSTRUCTURE
     1  GMY      1

