@<TRIPOS>MOLECULE
2yge_ligand_027
    80    81
SMALL
GAST_HUCK
****
This file was generated by PARSER (from files_GN.cpp)

@<TRIPOS>ATOM
      1 C1         23.7779  -38.2317   -5.1582 C.2         1 GMY       0.0496
      2 C2         23.8389  -38.2893   -6.5494 C.2         1 GMY       0.1905
      3 C3         22.7974  -38.8337   -7.2825 C.2         1 GMY       0.1367
      4 C4         21.8390  -39.5273   -6.6267 C.2         1 GMY       0.0078
      5 C5         21.8254  -39.5828   -5.2636 C.2         1 GMY       0.1522
      6 C6         22.7474  -38.8628   -4.5292 C.2         1 GMY       0.1484
      7 C7         24.8506  -37.5235   -4.4222 C.3         1 GMY      -0.0163
      8 C8         24.8130  -35.9549   -4.5790 C.3         1 GMY      -0.0344
      9 C9         24.5990  -35.2242   -3.2116 C.3         1 GMY      -0.0200
     10 C10        24.1974  -33.7075   -3.2909 C.3         1 GMY       0.0859
     11 C11        23.1352  -33.2486   -2.2272 C.3         1 GMY       0.0868
     12 C12        21.6690  -33.7459   -2.5033 C.3         1 GMY      -0.0094
     13 C13        21.1263  -33.1631   -3.7388 C.2         1 GMY      -0.1006
     14 C14        20.5303  -33.8088   -4.7695 C.2         1 GMY      -0.0457
     15 C15        20.1351  -33.0683   -5.9896 C.3         1 GMY       0.1504
     16 C16        20.8052  -33.5948   -7.2985 C.3         1 GMY       0.1288
     17 C17        22.2656  -33.5999   -7.2056 C.2         1 GMY      -0.0424
     18 C18        23.0976  -34.5686   -7.6246 C.2         1 GMY      -0.0729
     19 C19        22.7310  -35.7657   -8.1535 C.2         1 GMY      -0.0656
     20 C20        23.3906  -36.4768   -9.1004 C.2         1 GMY       0.0245
     21 C21        22.9286  -37.7242   -9.4395 C.2         1 GMY       0.2316
     22 N22        22.6486  -38.7331   -8.6164 N.am        1 GMY      -0.2158
     23 O23        24.9101  -38.1514   -7.1259 O.2         1 GMY      -0.3575
     24 O24        21.0488  -40.3497   -4.7039 O.2         1 GMY      -0.3865
     25 O25        22.7554  -38.9630   -3.1837 O.3         1 GMY      -0.3151
     26 C26        21.7347  -38.2271   -2.4850 C.3         1 GMY       0.0602
     27 C27        26.0781  -35.4215   -5.3167 C.3         1 GMY      -0.0609
     28 O28        25.3652  -32.8530   -3.3687 O.3         1 GMY      -0.3771
     29 C29        26.0478  -32.4460   -2.1670 C.3         1 GMY       0.0369
     30 O30        23.5650  -33.6423   -0.9198 O.3         1 GMY      -0.3877
     31 C31        20.6997  -33.4474   -1.3266 C.3         1 GMY      -0.0567
     32 C32        20.2480  -35.2433   -4.7057 C.3         1 GMY      -0.0373
     33 O33        18.7072  -33.1599   -6.1579 O.3         1 GMY      -0.2436
     34 C34        17.7474  -32.4436   -5.5148 C.2         1 GMY       0.3194
     35 O35        18.0421  -31.4579   -4.6309 O.2         1 GMY      -0.3776
     36 N36        16.4607  -32.7140   -5.7952 N.am        1 GMY      -0.2762
     37 O37        20.3952  -32.7458   -8.3906 O.3         1 GMY      -0.3598
     38 C38        20.5219  -33.3063   -9.7090 C.3         1 GMY       0.0406
     39 C39        24.5752  -36.0037   -9.8221 C.3         1 GMY      -0.0273
     40 O40        22.6025  -37.9155  -10.6031 O.2         1 GMY      -0.3753
     41 H1         21.0951  -39.9599   -7.1289 H           1 GMY       0.0327
     42 H2         25.8133  -37.9154   -4.7632 H           1 GMY       0.0392
     43 H3         24.8374  -37.7786   -3.3615 H           1 GMY       0.0392
     44 H4         23.9529  -35.6942   -5.2010 H           1 GMY       0.0317
     45 H5         25.5026  -35.3359   -2.6093 H           1 GMY       0.0295
     46 H6         23.8130  -35.7603   -2.6820 H           1 GMY       0.0295
     47 H7         23.7269  -33.5480   -4.2616 H           1 GMY       0.0623
     48 H8         23.1156  -32.1536   -2.2158 H           1 GMY       0.0637
     49 H9         21.7114  -34.8299   -2.5781 H           1 GMY       0.0398
     50 H10        21.1995  -32.1729   -3.8055 H           1 GMY       0.0247
     51 H11        20.3895  -32.0014   -5.9172 H           1 GMY       0.0853
     52 H12        20.3983  -34.5911   -7.4773 H           1 GMY       0.0852
     53 H13        22.6877  -32.7685   -6.8638 H           1 GMY       0.0741
     54 H14        24.0699  -34.3998   -7.5095 H           1 GMY       0.0436
     55 H15        21.9262  -36.1881   -7.7479 H           1 GMY       0.0539
     56 H16        22.1717  -39.4701   -9.0330 H           1 GMY       0.2392
     57 H17        21.9679  -38.2726   -1.4163 H           1 GMY       0.0581
     58 H18        20.7460  -38.6748   -2.6484 H           1 GMY       0.0581
     59 H19        21.7165  -37.1739   -2.7839 H           1 GMY       0.0581
     60 H20        26.1996  -35.9266   -6.2782 H           1 GMY       0.0234
     61 H21        26.9758  -35.5976   -4.7159 H           1 GMY       0.0234
     62 H22        25.9937  -34.3495   -5.5146 H           1 GMY       0.0234
     63 H23        26.9998  -31.9967   -2.4525 H           1 GMY       0.0524
     64 H24        26.2513  -33.2870   -1.4999 H           1 GMY       0.0524
     65 H25        25.4645  -31.6924   -1.6319 H           1 GMY       0.0524
     66 H26        23.4698  -34.6166   -0.8815 H           1 GMY       0.2101
     67 H27        19.6840  -33.7790   -1.5629 H           1 GMY       0.0247
     68 H28        20.6753  -32.3806   -1.1084 H           1 GMY       0.0247
     69 H29        21.0214  -33.9785   -0.4299 H           1 GMY       0.0247
     70 H30        19.7164  -35.4773   -3.7818 H           1 GMY       0.0376
     71 H31        21.1842  -35.8044   -4.7441 H           1 GMY       0.0376
     72 H32        19.6196  -35.5921   -5.5282 H           1 GMY       0.0376
     73 H33        15.7476  -32.1930   -5.3857 H           1 GMY       0.1831
     74 H34        16.2413  -33.4251   -6.4258 H           1 GMY       0.1831
     75 H35        20.2050  -32.5596  -10.4304 H           1 GMY       0.0527
     76 H36        19.8869  -34.1839   -9.8233 H           1 GMY       0.0527
     77 H37        21.5549  -33.5737   -9.9292 H           1 GMY       0.0527
     78 H38        24.8680  -34.9867   -9.5692 H           1 GMY       0.0384
     79 H39        24.3944  -36.0197  -10.8990 H           1 GMY       0.0384
     80 H40        25.4193  -36.6599   -9.6023 H           1 GMY       0.0384
@<TRIPOS>BOND
     1     1     2   1
     2     1     6   2
     3     1     7   1
     4     2     3   1
     5     2    23   2
     6     3     4   2
     7     3    22   1
     8     4     5   1
     9     5     6   1
    10     5    24   2
    11     6    25   1
    12     7     8   1
    13     8     9   1
    14     8    27   1
    15     9    10   1
    16    10    11   1
    17    10    28   1
    18    11    12   1
    19    11    30   1
    20    12    13   1
    21    12    31   1
    22    13    14   2
    23    14    15   1
    24    14    32   1
    25    15    16   1
    26    15    33   1
    27    16    17   1
    28    16    37   1
    29    17    18   2
    30    18    19   1
    31    19    20   2
    32    20    21   1
    33    20    39   1
    34    21    22  am
    35    21    40   2
    36    25    26   1
    37    28    29   1
    38    33    34   1
    39    34    35   2
    40    34    36  am
    41    37    38   1
    42     4    41   1
    43     7    42   1
    44     7    43   1
    45     8    44   1
    46     9    45   1
    47     9    46   1
    48    10    47   1
    49    11    48   1
    50    12    49   1
    51    13    50   1
    52    15    51   1
    53    16    52   1
    54    17    53   1
    55    18    54   1
    56    19    55   1
    57    22    56   1
    58    26    57   1
    59    26    58   1
    60    26    59   1
    61    27    60   1
    62    27    61   1
    63    27    62   1
    64    29    63   1
    65    29    64   1
    66    29    65   1
    67    30    66   1
    68    31    67   1
    69    31    68   1
    70    31    69   1
    71    32    70   1
    72    32    71   1
    73    32    72   1
    74    36    73   1
    75    36    74   1
    76    38    75   1
    77    38    76   1
    78    38    77   1
    79    39    78   1
    80    39    79   1
    81    39    80   1
@<TRIPOS>SUBSTRUCTURE
     1  GMY      1

