@<TRIPOS>MOLECULE
2yge_ligand_029
    80    81
SMALL
GAST_HUCK
****
This file was generated by PARSER (from files_GN.cpp)

@<TRIPOS>ATOM
      1 C1         25.6219  -40.1476   -9.2907 C.2         1 GMY       0.0496
      2 C2         25.6196  -41.3973   -9.8997 C.2         1 GMY       0.1905
      3 C3         24.5422  -42.2523   -9.7635 C.2         1 GMY       0.1367
      4 C4         23.5951  -41.9551   -8.8467 C.2         1 GMY       0.0078
      5 C5         23.6293  -40.7749   -8.1560 C.2         1 GMY       0.1522
      6 C6         24.6442  -39.8687   -8.3808 C.2         1 GMY       0.1484
      7 C7         26.6036  -39.1314   -9.7282 C.3         1 GMY      -0.0163
      8 C8         26.2180  -38.4279  -11.0788 C.3         1 GMY      -0.0344
      9 C9         25.0233  -37.4379  -10.8626 C.3         1 GMY      -0.0200
     10 C10        24.3269  -36.8199  -12.1145 C.3         1 GMY       0.0859
     11 C11        22.9660  -36.1157  -11.7553 C.3         1 GMY       0.0868
     12 C12        21.7521  -37.0736  -11.4914 C.3         1 GMY      -0.0094
     13 C13        21.4201  -37.8219  -12.7076 C.2         1 GMY      -0.1006
     14 C14        21.1239  -39.1358  -12.8241 C.2         1 GMY      -0.0457
     15 C15        20.8035  -39.7000  -14.1504 C.3         1 GMY       0.1504
     16 C16        21.7801  -40.8237  -14.6315 C.3         1 GMY       0.1288
     17 C17        23.1702  -40.3511  -14.6682 C.2         1 GMY      -0.0424
     18 C18        24.2001  -40.8072  -13.9278 C.2         1 GMY      -0.0729
     19 C19        24.1191  -41.7537  -12.9558 C.2         1 GMY      -0.0656
     20 C20        24.9901  -42.7625  -12.7103 C.2         1 GMY       0.0245
     21 C21        24.6746  -43.6651  -11.7290 C.2         1 GMY       0.2316
     22 N22        24.3977  -43.3967  -10.4557 N.am        1 GMY      -0.2158
     23 O23        26.6714  -41.8678  -10.3173 O.2         1 GMY      -0.3575
     24 O24        22.6965  -40.4983   -7.4105 O.2         1 GMY      -0.3865
     25 O25        24.5191  -38.6255   -7.8696 O.3         1 GMY      -0.3151
     26 C26        24.9691  -38.4611   -6.5143 C.3         1 GMY       0.0602
     27 C27        27.4678  -37.7399  -11.6995 C.3         1 GMY      -0.0609
     28 O28        25.2328  -35.8522  -12.6943 O.3         1 GMY      -0.3771
     29 C29        25.1155  -35.6248  -14.1166 C.3         1 GMY       0.0369
     30 O30        23.1917  -35.2358  -10.6477 O.3         1 GMY      -0.3877
     31 C31        20.4783  -36.3176  -11.0242 C.3         1 GMY      -0.0567
     32 C32        21.0370  -39.9965  -11.6452 C.3         1 GMY      -0.0373
     33 O33        19.4030  -40.0346  -14.1397 O.3         1 GMY      -0.2436
     34 C34        18.6962  -41.1956  -14.1028 C.2         1 GMY       0.3194
     35 O35        19.2722  -42.4157  -14.0034 O.2         1 GMY      -0.3776
     36 N36        17.3626  -41.1175  -14.1423 N.am        1 GMY      -0.2762
     37 O37        21.3254  -41.2289  -15.9459 O.3         1 GMY      -0.3598
     38 C38        21.9318  -42.4162  -16.5006 C.3         1 GMY       0.0406
     39 C39        26.2090  -43.0142  -13.4802 C.3         1 GMY      -0.0273
     40 O40        24.4230  -44.8092  -12.0817 O.2         1 GMY      -0.3753
     41 H1         22.8273  -42.5740   -8.7086 H           1 GMY       0.0327
     42 H2         27.5822  -39.6121   -9.8233 H           1 GMY       0.0392
     43 H3         26.7493  -38.3658   -8.9613 H           1 GMY       0.0392
     44 H4         25.9024  -39.1990  -11.7872 H           1 GMY       0.0317
     45 H5         25.3566  -36.6341  -10.2004 H           1 GMY       0.0295
     46 H6         24.2520  -37.9868  -10.3322 H           1 GMY       0.0295
     47 H7         24.1473  -37.6406  -12.8176 H           1 GMY       0.0623
     48 H8         22.6909  -35.4788  -12.5981 H           1 GMY       0.0637
     49 H9         22.0220  -37.7398  -10.6724 H           1 GMY       0.0398
     50 H10        21.3498  -37.2653  -13.5312 H           1 GMY       0.0247
     51 H11        20.8629  -38.9269  -14.9238 H           1 GMY       0.0853
     52 H12        21.6742  -41.6794  -13.9632 H           1 GMY       0.0852
     53 H13        23.3679  -39.6209  -15.3137 H           1 GMY       0.0741
     54 H14        25.0822  -40.3735  -14.0712 H           1 GMY       0.0436
     55 H15        23.3186  -41.6878  -12.3698 H           1 GMY       0.0539
     56 H16        23.9495  -44.1124   -9.9765 H           1 GMY       0.2392
     57 H17        24.9347  -37.3966   -6.2803 H           1 GMY       0.0581
     58 H18        25.9963  -38.8135   -6.3800 H           1 GMY       0.0581
     59 H19        24.3081  -38.9797   -5.8181 H           1 GMY       0.0581
     60 H20        28.2902  -38.4527  -11.7915 H           1 GMY       0.0234
     61 H21        27.7983  -36.9043  -11.0796 H           1 GMY       0.0234
     62 H22        27.2477  -37.3741  -12.7016 H           1 GMY       0.0234
     63 H23        25.8782  -34.8978  -14.4107 H           1 GMY       0.0524
     64 H24        24.1351  -35.2154  -14.3820 H           1 GMY       0.0524
     65 H25        25.2848  -36.5519  -14.6786 H           1 GMY       0.0524
     66 H26        22.3846  -34.6874  -10.5738 H           1 GMY       0.2101
     67 H27        19.6549  -37.0187  -10.8797 H           1 GMY       0.0247
     68 H28        20.1739  -35.5703  -11.7594 H           1 GMY       0.0247
     69 H29        20.6566  -35.8193  -10.0708 H           1 GMY       0.0247
     70 H30        20.3056  -39.5884  -10.9471 H           1 GMY       0.0376
     71 H31        22.0073  -40.0572  -11.1479 H           1 GMY       0.0376
     72 H32        20.7201  -41.0106  -11.8875 H           1 GMY       0.0376
     73 H33        16.8347  -41.9274  -14.1280 H           1 GMY       0.1831
     74 H34        16.9253  -40.2516  -14.2032 H           1 GMY       0.1831
     75 H35        21.4607  -42.6274  -17.4576 H           1 GMY       0.0527
     76 H36        21.7869  -43.2796  -15.8438 H           1 GMY       0.0527
     77 H37        23.0015  -42.2652  -16.6648 H           1 GMY       0.0527
     78 H38        26.4021  -42.2734  -14.2584 H           1 GMY       0.0384
     79 H39        26.1498  -43.9881  -13.9719 H           1 GMY       0.0384
     80 H40        27.0738  -43.0181  -12.8129 H           1 GMY       0.0384
@<TRIPOS>BOND
     1     1     2   1
     2     1     6   2
     3     1     7   1
     4     2     3   1
     5     2    23   2
     6     3     4   2
     7     3    22   1
     8     4     5   1
     9     5     6   1
    10     5    24   2
    11     6    25   1
    12     7     8   1
    13     8     9   1
    14     8    27   1
    15     9    10   1
    16    10    11   1
    17    10    28   1
    18    11    12   1
    19    11    30   1
    20    12    13   1
    21    12    31   1
    22    13    14   2
    23    14    15   1
    24    14    32   1
    25    15    16   1
    26    15    33   1
    27    16    17   1
    28    16    37   1
    29    17    18   2
    30    18    19   1
    31    19    20   2
    32    20    21   1
    33    20    39   1
    34    21    22  am
    35    21    40   2
    36    25    26   1
    37    28    29   1
    38    33    34   1
    39    34    35   2
    40    34    36  am
    41    37    38   1
    42     4    41   1
    43     7    42   1
    44     7    43   1
    45     8    44   1
    46     9    45   1
    47     9    46   1
    48    10    47   1
    49    11    48   1
    50    12    49   1
    51    13    50   1
    52    15    51   1
    53    16    52   1
    54    17    53   1
    55    18    54   1
    56    19    55   1
    57    22    56   1
    58    26    57   1
    59    26    58   1
    60    26    59   1
    61    27    60   1
    62    27    61   1
    63    27    62   1
    64    29    63   1
    65    29    64   1
    66    29    65   1
    67    30    66   1
    68    31    67   1
    69    31    68   1
    70    31    69   1
    71    32    70   1
    72    32    71   1
    73    32    72   1
    74    36    73   1
    75    36    74   1
    76    38    75   1
    77    38    76   1
    78    38    77   1
    79    39    78   1
    80    39    79   1
    81    39    80   1
@<TRIPOS>SUBSTRUCTURE
     1  GMY      1

