@<TRIPOS>MOLECULE
2yge_ligand_050
    80    81
SMALL
GAST_HUCK
****
This file was generated by PARSER (from files_GN.cpp)

@<TRIPOS>ATOM
      1 C1         29.2365  -27.3240   -4.4175 C.2         1 GMY       0.0496
      2 C2         28.4211  -28.0361   -3.5326 C.2         1 GMY       0.1905
      3 C3         27.4105  -27.4063   -2.8241 C.2         1 GMY       0.1367
      4 C4         27.3534  -26.0561   -2.8537 C.2         1 GMY       0.0078
      5 C5         28.2478  -25.3315   -3.5849 C.2         1 GMY       0.1522
      6 C6         29.1245  -25.9615   -4.4454 C.2         1 GMY       0.1484
      7 C7         30.2463  -28.0520   -5.2194 C.3         1 GMY      -0.0163
      8 C8         29.6579  -28.9067   -6.4080 C.3         1 GMY      -0.0344
      9 C9         30.4541  -28.6983   -7.7414 C.3         1 GMY      -0.0200
     10 C10        29.7218  -29.1331   -9.0633 C.3         1 GMY       0.0859
     11 C11        29.1947  -27.9436   -9.9348 C.3         1 GMY       0.0868
     12 C12        28.0989  -27.0380   -9.2682 C.3         1 GMY      -0.0094
     13 C13        26.8515  -27.7529   -8.9836 C.2         1 GMY      -0.1006
     14 C14        25.9565  -27.4876   -7.9987 C.2         1 GMY      -0.0457
     15 C15        24.6296  -28.1381   -8.0312 C.3         1 GMY       0.1504
     16 C16        24.3207  -29.1155   -6.8516 C.3         1 GMY       0.1288
     17 C17        25.3826  -30.1085   -6.6698 C.2         1 GMY      -0.0424
     18 C18        26.0069  -30.3977   -5.5138 C.2         1 GMY      -0.0729
     19 C19        25.8845  -29.6881   -4.3633 C.2         1 GMY      -0.0656
     20 C20        26.0194  -30.1262   -3.0890 C.2         1 GMY       0.0245
     21 C21        25.9536  -29.2156   -2.0622 C.2         1 GMY       0.2316
     22 N22        26.5266  -28.0181   -2.0101 N.am        1 GMY      -0.2158
     23 O23        28.8105  -29.1112   -3.0960 O.2         1 GMY      -0.3575
     24 O24        28.3713  -24.1340   -3.3312 O.2         1 GMY      -0.3865
     25 O25        29.9898  -25.2144   -5.1677 O.3         1 GMY      -0.3151
     26 C26        29.4376  -24.3512   -6.1826 C.3         1 GMY       0.0602
     27 C27        29.5734  -30.4241   -6.0560 C.3         1 GMY      -0.0609
     28 O28        30.6131  -29.8926   -9.9194 O.3         1 GMY      -0.3771
     29 C29        30.8644  -31.2645   -9.5630 C.3         1 GMY       0.0369
     30 O30        30.3066  -27.1542  -10.3659 O.3         1 GMY      -0.3877
     31 C31        27.7784  -25.7839  -10.1346 C.3         1 GMY      -0.0567
     32 C32        26.2241  -26.5125   -6.9399 C.3         1 GMY      -0.0373
     33 O33        23.5981  -27.1384   -8.0522 O.3         1 GMY      -0.2436
     34 C34        23.3251  -26.2269   -9.0221 C.2         1 GMY       0.3194
     35 O35        24.0549  -26.1442  -10.1576 O.2         1 GMY      -0.3776
     36 N36        22.2958  -25.3896   -8.8355 N.am        1 GMY      -0.2762
     37 O37        23.0623  -29.7738   -7.1253 O.3         1 GMY      -0.3598
     38 C38        22.5809  -30.7601   -6.1922 C.3         1 GMY       0.0406
     39 C39        26.2042  -31.5288   -2.7180 C.3         1 GMY      -0.0273
     40 O40        25.1822  -29.4430   -1.1393 O.2         1 GMY      -0.3753
     41 H1         26.6591  -25.5712   -2.3275 H           1 GMY       0.0327
     42 H2         30.8249  -28.6984   -4.5542 H           1 GMY       0.0392
     43 H3         30.9968  -27.3558   -5.5992 H           1 GMY       0.0392
     44 H4         28.6366  -28.5732   -6.5945 H           1 GMY       0.0317
     45 H5         31.4080  -29.2242   -7.6571 H           1 GMY       0.0295
     46 H6         30.7112  -27.6426   -7.8214 H           1 GMY       0.0295
     47 H7         28.8490  -29.7474   -8.8254 H           1 GMY       0.0623
     48 H8         28.7687  -28.3695  -10.8483 H           1 GMY       0.0637
     49 H9         28.5245  -26.6870   -8.3352 H           1 GMY       0.0398
     50 H10        26.5948  -28.4286   -9.6693 H           1 GMY       0.0247
     51 H11        24.5064  -28.7148   -8.9508 H           1 GMY       0.0853
     52 H12        24.1501  -28.5036   -5.9659 H           1 GMY       0.0852
     53 H13        25.5982  -30.6754   -7.4605 H           1 GMY       0.0741
     54 H14        26.6534  -31.1499   -5.5349 H           1 GMY       0.0436
     55 H15        25.7533  -28.7129   -4.4904 H           1 GMY       0.0539
     56 H16        26.2062  -27.4625   -1.2820 H           1 GMY       0.2392
     57 H17        30.2628  -23.8680   -6.7086 H           1 GMY       0.0581
     58 H18        28.8016  -23.5679   -5.7623 H           1 GMY       0.0581
     59 H19        28.8581  -24.9133   -6.9088 H           1 GMY       0.0581
     60 H20        29.0132  -30.5788   -5.1360 H           1 GMY       0.0234
     61 H21        30.5710  -30.8468   -5.9213 H           1 GMY       0.0234
     62 H22        29.0656  -30.9840   -6.8432 H           1 GMY       0.0234
     63 H23        31.5497  -31.6931  -10.2939 H           1 GMY       0.0524
     64 H24        29.9394  -31.8418   -9.5819 H           1 GMY       0.0524
     65 H25        31.3233  -31.3484   -8.5784 H           1 GMY       0.0524
     66 H26        30.4641  -26.5042   -9.6500 H           1 GMY       0.2101
     67 H27        27.0069  -25.1676   -9.6684 H           1 GMY       0.0247
     68 H28        27.4306  -26.0810  -11.1269 H           1 GMY       0.0247
     69 H29        28.6682  -25.1617  -10.2481 H           1 GMY       0.0247
     70 H30        26.3999  -25.5226   -7.3628 H           1 GMY       0.0376
     71 H31        27.0951  -26.8149   -6.3645 H           1 GMY       0.0376
     72 H32        25.3956  -26.4183   -6.2383 H           1 GMY       0.0376
     73 H33        22.0830  -24.7200   -9.5046 H           1 GMY       0.1831
     74 H34        21.7672  -25.4565   -8.0244 H           1 GMY       0.1831
     75 H35        21.5475  -30.9930   -6.4457 H           1 GMY       0.0527
     76 H36        22.6190  -30.3924   -5.1666 H           1 GMY       0.0527
     77 H37        23.1638  -31.6789   -6.2702 H           1 GMY       0.0527
     78 H38        26.2310  -32.2128   -3.5657 H           1 GMY       0.0384
     79 H39        25.3855  -31.8569   -2.0727 H           1 GMY       0.0384
     80 H40        27.1431  -31.6388   -2.1718 H           1 GMY       0.0384
@<TRIPOS>BOND
     1     1     2   1
     2     1     6   2
     3     1     7   1
     4     2     3   1
     5     2    23   2
     6     3     4   2
     7     3    22   1
     8     4     5   1
     9     5     6   1
    10     5    24   2
    11     6    25   1
    12     7     8   1
    13     8     9   1
    14     8    27   1
    15     9    10   1
    16    10    11   1
    17    10    28   1
    18    11    12   1
    19    11    30   1
    20    12    13   1
    21    12    31   1
    22    13    14   2
    23    14    15   1
    24    14    32   1
    25    15    16   1
    26    15    33   1
    27    16    17   1
    28    16    37   1
    29    17    18   2
    30    18    19   1
    31    19    20   2
    32    20    21   1
    33    20    39   1
    34    21    22  am
    35    21    40   2
    36    25    26   1
    37    28    29   1
    38    33    34   1
    39    34    35   2
    40    34    36  am
    41    37    38   1
    42     4    41   1
    43     7    42   1
    44     7    43   1
    45     8    44   1
    46     9    45   1
    47     9    46   1
    48    10    47   1
    49    11    48   1
    50    12    49   1
    51    13    50   1
    52    15    51   1
    53    16    52   1
    54    17    53   1
    55    18    54   1
    56    19    55   1
    57    22    56   1
    58    26    57   1
    59    26    58   1
    60    26    59   1
    61    27    60   1
    62    27    61   1
    63    27    62   1
    64    29    63   1
    65    29    64   1
    66    29    65   1
    67    30    66   1
    68    31    67   1
    69    31    68   1
    70    31    69   1
    71    32    70   1
    72    32    71   1
    73    32    72   1
    74    36    73   1
    75    36    74   1
    76    38    75   1
    77    38    76   1
    78    38    77   1
    79    39    78   1
    80    39    79   1
    81    39    80   1
@<TRIPOS>SUBSTRUCTURE
     1  GMY      1

