@<TRIPOS>MOLECULE
2yge_ligand_019
    80    81
SMALL
GAST_HUCK
****
This file was generated by PARSER (from files_GN.cpp)

@<TRIPOS>ATOM
      1 C1         21.9994  -35.8118   -3.2928 C.2         1 GMY       0.0496
      2 C2         20.9840  -34.9091   -3.5960 C.2         1 GMY       0.1905
      3 C3         20.6371  -33.9104   -2.7040 C.2         1 GMY       0.1367
      4 C4         21.0865  -33.9971   -1.4330 C.2         1 GMY       0.0078
      5 C5         21.9414  -34.9968   -1.0624 C.2         1 GMY       0.1522
      6 C6         22.4626  -35.8536   -2.0093 C.2         1 GMY       0.1484
      7 C7         22.5209  -36.7032   -4.3526 C.3         1 GMY      -0.0163
      8 C8         23.3314  -35.9680   -5.4921 C.3         1 GMY      -0.0344
      9 C9         24.6862  -36.6861   -5.8291 C.3         1 GMY      -0.0200
     10 C10        25.7301  -35.8758   -6.6867 C.3         1 GMY       0.0859
     11 C11        27.1387  -35.7130   -6.0170 C.3         1 GMY       0.0868
     12 C12        27.2103  -34.7791   -4.7586 C.3         1 GMY      -0.0094
     13 C13        26.8780  -33.3805   -5.0677 C.2         1 GMY      -0.1006
     14 C14        26.0680  -32.5312   -4.3866 C.2         1 GMY      -0.0457
     15 C15        25.9477  -31.1105   -4.8184 C.3         1 GMY       0.1504
     16 C16        24.5018  -30.6543   -5.2308 C.3         1 GMY       0.1288
     17 C17        23.8761  -31.5695   -6.1885 C.2         1 GMY      -0.0424
     18 C18        22.6727  -32.1707   -6.1186 C.2         1 GMY      -0.0729
     19 C19        21.7418  -32.0567   -5.1313 C.2         1 GMY      -0.0656
     20 C20        20.4052  -32.2717   -5.2444 C.2         1 GMY       0.0245
     21 C21        19.6337  -32.2038   -4.1142 C.2         1 GMY       0.2316
     22 N22        19.8079  -32.8865   -2.9867 N.am        1 GMY      -0.2158
     23 O23        20.1285  -35.2407   -4.4062 O.2         1 GMY      -0.3575
     24 O24        22.2040  -35.1450    0.1243 O.2         1 GMY      -0.3865
     25 O25        23.3112  -36.8099   -1.5911 O.3         1 GMY      -0.3151
     26 C26        24.5756  -36.3381   -1.0874 C.3         1 GMY       0.0602
     27 C27        22.4618  -35.7617   -6.7660 C.3         1 GMY      -0.0609
     28 O28        26.0222  -36.5371   -7.9432 O.3         1 GMY      -0.3771
     29 C29        25.1537  -36.3219   -9.0625 C.3         1 GMY       0.0369
     30 O30        27.6374  -37.0151   -5.6879 O.3         1 GMY      -0.3877
     31 C31        28.6237  -34.7996   -4.1080 C.3         1 GMY      -0.0567
     32 C32        25.3221  -32.9957   -3.2184 C.3         1 GMY      -0.0373
     33 O33        26.5910  -30.1903   -3.9108 O.3         1 GMY      -0.2436
     34 C34        26.3883  -29.8106   -2.6198 C.2         1 GMY       0.3194
     35 O35        25.3969  -30.3281   -1.8637 O.2         1 GMY      -0.3776
     36 N36        27.1929  -28.8741   -2.0817 N.am        1 GMY      -0.2762
     37 O37        24.4198  -29.2950   -5.7253 O.3         1 GMY      -0.3598
     38 C38        25.0957  -28.9049   -6.9348 C.3         1 GMY       0.0406
     39 C39        19.6929  -32.5454   -6.4957 C.3         1 GMY      -0.0273
     40 O40        18.7763  -31.3330   -4.0574 O.2         1 GMY      -0.3753
     41 H1         20.8174  -33.3091   -0.7593 H           1 GMY       0.0327
     42 H2         21.6821  -37.2567   -4.7865 H           1 GMY       0.0392
     43 H3         23.1453  -37.4826   -3.9141 H           1 GMY       0.0392
     44 H4         23.5902  -34.9704   -5.1366 H           1 GMY       0.0317
     45 H5         24.4603  -37.6324   -6.3271 H           1 GMY       0.0295
     46 H6         25.1578  -36.9585   -4.8843 H           1 GMY       0.0295
     47 H7         25.3554  -34.8683   -6.8886 H           1 GMY       0.0623
     48 H8         27.8263  -35.3062   -6.7702 H           1 GMY       0.0637
     49 H9         26.5356  -35.1905   -4.0162 H           1 GMY       0.0398
     50 H10        27.3833  -33.0083   -5.8429 H           1 GMY       0.0247
     51 H11        26.5491  -30.9725   -5.7190 H           1 GMY       0.0853
     52 H12        23.9114  -30.6228   -4.3212 H           1 GMY       0.0852
     53 H13        24.4196  -31.7732   -6.9998 H           1 GMY       0.0741
     54 H14        22.4650  -32.7893   -6.8654 H           1 GMY       0.0436
     55 H15        22.0915  -31.8575   -4.2224 H           1 GMY       0.0539
     56 H16        19.3022  -32.5479   -2.2303 H           1 GMY       0.2392
     57 H17        25.1309  -37.1936   -0.7054 H           1 GMY       0.0581
     58 H18        24.4570  -35.6180   -0.2729 H           1 GMY       0.0581
     59 H19        25.1622  -35.8904   -1.8859 H           1 GMY       0.0581
     60 H20        21.5378  -35.2356   -6.5299 H           1 GMY       0.0234
     61 H21        22.2033  -36.7210   -7.2197 H           1 GMY       0.0234
     62 H22        22.9941  -35.1577   -7.5007 H           1 GMY       0.0234
     63 H23        25.6057  -36.7954   -9.9331 H           1 GMY       0.0524
     64 H24        25.0347  -35.2576   -9.2733 H           1 GMY       0.0524
     65 H25        24.1816  -36.7819   -8.8928 H           1 GMY       0.0524
     66 H26        27.8065  -37.4614   -6.5469 H           1 GMY       0.2101
     67 H27        28.6512  -34.1430   -3.2343 H           1 GMY       0.0247
     68 H28        29.3862  -34.4682   -4.8179 H           1 GMY       0.0247
     69 H29        28.8803  -35.8064   -3.7730 H           1 GMY       0.0247
     70 H30        26.0179  -33.2515   -2.4150 H           1 GMY       0.0376
     71 H31        24.7248  -33.8689   -3.4717 H           1 GMY       0.0376
     72 H32        24.6187  -32.2627   -2.8396 H           1 GMY       0.0376
     73 H33        27.0574  -28.5669   -1.1696 H           1 GMY       0.1831
     74 H34        27.9168  -28.4885   -2.6008 H           1 GMY       0.1831
     75 H35        24.7029  -27.9353   -7.2400 H           1 GMY       0.0527
     76 H36        24.9275  -29.6107   -7.7497 H           1 GMY       0.0527
     77 H37        26.1677  -28.7993   -6.7604 H           1 GMY       0.0527
     78 H38        20.3152  -32.4919   -7.3863 H           1 GMY       0.0384
     79 H39        18.8884  -31.8228   -6.6360 H           1 GMY       0.0384
     80 H40        19.2490  -33.5413   -6.4555 H           1 GMY       0.0384
@<TRIPOS>BOND
     1     1     2   1
     2     1     6   2
     3     1     7   1
     4     2     3   1
     5     2    23   2
     6     3     4   2
     7     3    22   1
     8     4     5   1
     9     5     6   1
    10     5    24   2
    11     6    25   1
    12     7     8   1
    13     8     9   1
    14     8    27   1
    15     9    10   1
    16    10    11   1
    17    10    28   1
    18    11    12   1
    19    11    30   1
    20    12    13   1
    21    12    31   1
    22    13    14   2
    23    14    15   1
    24    14    32   1
    25    15    16   1
    26    15    33   1
    27    16    17   1
    28    16    37   1
    29    17    18   2
    30    18    19   1
    31    19    20   2
    32    20    21   1
    33    20    39   1
    34    21    22  am
    35    21    40   2
    36    25    26   1
    37    28    29   1
    38    33    34   1
    39    34    35   2
    40    34    36  am
    41    37    38   1
    42     4    41   1
    43     7    42   1
    44     7    43   1
    45     8    44   1
    46     9    45   1
    47     9    46   1
    48    10    47   1
    49    11    48   1
    50    12    49   1
    51    13    50   1
    52    15    51   1
    53    16    52   1
    54    17    53   1
    55    18    54   1
    56    19    55   1
    57    22    56   1
    58    26    57   1
    59    26    58   1
    60    26    59   1
    61    27    60   1
    62    27    61   1
    63    27    62   1
    64    29    63   1
    65    29    64   1
    66    29    65   1
    67    30    66   1
    68    31    67   1
    69    31    68   1
    70    31    69   1
    71    32    70   1
    72    32    71   1
    73    32    72   1
    74    36    73   1
    75    36    74   1
    76    38    75   1
    77    38    76   1
    78    38    77   1
    79    39    78   1
    80    39    79   1
    81    39    80   1
@<TRIPOS>SUBSTRUCTURE
     1  GMY      1

