@<TRIPOS>MOLECULE
2yge_ligand_056
    80    81
SMALL
GAST_HUCK
****
This file was generated by PARSER (from files_GN.cpp)

@<TRIPOS>ATOM
      1 C1         18.2478  -34.0052   -2.2798 C.2         1 GMY       0.0496
      2 C2         17.6547  -34.1740   -3.5399 C.2         1 GMY       0.1905
      3 C3         17.1426  -33.1043   -4.2460 C.2         1 GMY       0.1367
      4 C4         17.1019  -31.8866   -3.6327 C.2         1 GMY       0.0078
      5 C5         17.6278  -31.7063   -2.3772 C.2         1 GMY       0.1522
      6 C6         18.2000  -32.7625   -1.6897 C.2         1 GMY       0.1484
      7 C7         18.8910  -35.1606   -1.6172 C.3         1 GMY      -0.0163
      8 C8         20.2744  -35.5960   -2.2435 C.3         1 GMY      -0.0344
      9 C9         21.4648  -34.9012   -1.5045 C.3         1 GMY      -0.0200
     10 C10        22.9061  -35.1189   -2.0697 C.3         1 GMY       0.0859
     11 C11        23.9014  -33.9682   -1.6492 C.3         1 GMY       0.0868
     12 C12        23.6737  -32.6009   -2.3706 C.3         1 GMY      -0.0094
     13 C13        23.7766  -32.7931   -3.8255 C.2         1 GMY      -0.1006
     14 C14        22.8170  -32.6156   -4.7676 C.2         1 GMY      -0.0457
     15 C15        23.1552  -32.8894   -6.1808 C.3         1 GMY       0.1504
     16 C16        22.0760  -33.5869   -7.0799 C.3         1 GMY       0.1288
     17 C17        21.5857  -34.8277   -6.4649 C.2         1 GMY      -0.0424
     18 C18        20.3097  -35.1751   -6.2112 C.2         1 GMY      -0.0729
     19 C19        19.2010  -34.3906   -6.3546 C.2         1 GMY      -0.0656
     20 C20        17.9488  -34.8206   -6.6461 C.2         1 GMY       0.0245
     21 C21        16.8861  -33.9518   -6.5251 C.2         1 GMY       0.2316
     22 N22        16.6006  -33.1692   -5.4802 N.am        1 GMY      -0.2158
     23 O23        17.2190  -35.2869   -3.8330 O.2         1 GMY      -0.3575
     24 O24        17.7855  -30.5504   -1.9855 O.2         1 GMY      -0.3865
     25 O25        18.4053  -32.6639   -0.3516 O.3         1 GMY      -0.3151
     26 C26        19.4258  -31.7578    0.1078 C.3         1 GMY       0.0602
     27 C27        20.4421  -37.1416   -2.2776 C.3         1 GMY      -0.0609
     28 O28        23.4112  -36.3851   -1.5771 O.3         1 GMY      -0.3771
     29 C29        24.3449  -37.1054   -2.4100 C.3         1 GMY       0.0369
     30 O30        23.8401  -33.7822   -0.2286 O.3         1 GMY      -0.3877
     31 C31        24.6962  -31.5170   -1.9183 C.3         1 GMY      -0.0567
     32 C32        21.5211  -32.0270   -4.4361 C.3         1 GMY      -0.0373
     33 O33        23.5029  -31.5959   -6.7025 O.3         1 GMY      -0.2436
     34 C34        24.7471  -31.0920   -6.9272 C.2         1 GMY       0.3194
     35 O35        25.8717  -31.8150   -6.7039 O.2         1 GMY      -0.3776
     36 N36        24.8764  -29.8147   -7.3020 N.am        1 GMY      -0.2762
     37 O37        22.7097  -33.8983   -8.3485 O.3         1 GMY      -0.3598
     38 C38        21.8266  -34.3005   -9.4162 C.3         1 GMY       0.0406
     39 C39        17.6403  -36.1595   -7.1606 C.3         1 GMY      -0.0273
     40 O40        16.1585  -33.8002   -7.4942 O.2         1 GMY      -0.3753
     41 H1         16.6915  -31.1159   -4.1111 H           1 GMY       0.0327
     42 H2         18.1888  -36.0002   -1.6446 H           1 GMY       0.0392
     43 H3         19.0356  -34.9924   -0.5426 H           1 GMY       0.0392
     44 H4         20.3011  -35.2689   -3.2877 H           1 GMY       0.0317
     45 H5         21.4600  -35.1935   -0.4531 H           1 GMY       0.0295
     46 H6         21.2468  -33.8339   -1.5282 H           1 GMY       0.0295
     47 H7         22.8256  -35.1657   -3.1591 H           1 GMY       0.0623
     48 H8         24.9253  -34.2887   -1.8846 H           1 GMY       0.0637
     49 H9         22.6893  -32.2190   -2.0922 H           1 GMY       0.0398
     50 H10        24.6746  -33.0984   -4.1481 H           1 GMY       0.0247
     51 H11        24.0339  -33.5438   -6.2392 H           1 GMY       0.0853
     52 H12        21.2615  -32.8732   -7.2556 H           1 GMY       0.0852
     53 H13        22.2756  -35.5235   -6.2717 H           1 GMY       0.0741
     54 H14        20.1681  -36.0814   -5.8116 H           1 GMY       0.0436
     55 H15        19.3056  -33.4279   -6.1279 H           1 GMY       0.0539
     56 H16        15.9217  -32.4949   -5.6542 H           1 GMY       0.2392
     57 H17        19.6775  -32.0116    1.1248 H           1 GMY       0.0581
     58 H18        19.0499  -30.7323    0.1075 H           1 GMY       0.0581
     59 H19        20.3406  -31.8197   -0.4978 H           1 GMY       0.0581
     60 H20        19.5777  -37.6010   -2.7595 H           1 GMY       0.0234
     61 H21        20.5272  -37.5429   -1.2673 H           1 GMY       0.0234
     62 H22        21.3311  -37.4190   -2.8542 H           1 GMY       0.0234
     63 H23        24.6460  -38.0117   -1.8889 H           1 GMY       0.0524
     64 H24        25.2451  -36.5239   -2.6204 H           1 GMY       0.0524
     65 H25        23.8761  -37.3910   -3.3544 H           1 GMY       0.0524
     66 H26        24.1505  -34.6354    0.1443 H           1 GMY       0.2101
     67 H27        24.5311  -30.5851   -2.4740 H           1 GMY       0.0247
     68 H28        25.7292  -31.8489   -2.0781 H           1 GMY       0.0247
     69 H29        24.5598  -31.3015   -0.8536 H           1 GMY       0.0247
     70 H30        21.6839  -31.0978   -3.8916 H           1 GMY       0.0376
     71 H31        20.9341  -32.7138   -3.8139 H           1 GMY       0.0376
     72 H32        20.9268  -31.7691   -5.3159 H           1 GMY       0.0376
     73 H33        25.7570  -29.4301   -7.4304 H           1 GMY       0.1831
     74 H34        24.0926  -29.2549   -7.3909 H           1 GMY       0.1831
     75 H35        22.4422  -34.4904  -10.2902 H           1 GMY       0.0527
     76 H36        21.1103  -33.5070   -9.6515 H           1 GMY       0.0527
     77 H37        21.2878  -35.2175   -9.1658 H           1 GMY       0.0527
     78 H38        18.5192  -36.7968   -7.2651 H           1 GMY       0.0384
     79 H39        17.1826  -36.0857   -8.1536 H           1 GMY       0.0384
     80 H40        16.9341  -36.6477   -6.4826 H           1 GMY       0.0384
@<TRIPOS>BOND
     1     1     2   1
     2     1     6   2
     3     1     7   1
     4     2     3   1
     5     2    23   2
     6     3     4   2
     7     3    22   1
     8     4     5   1
     9     5     6   1
    10     5    24   2
    11     6    25   1
    12     7     8   1
    13     8     9   1
    14     8    27   1
    15     9    10   1
    16    10    11   1
    17    10    28   1
    18    11    12   1
    19    11    30   1
    20    12    13   1
    21    12    31   1
    22    13    14   2
    23    14    15   1
    24    14    32   1
    25    15    16   1
    26    15    33   1
    27    16    17   1
    28    16    37   1
    29    17    18   2
    30    18    19   1
    31    19    20   2
    32    20    21   1
    33    20    39   1
    34    21    22  am
    35    21    40   2
    36    25    26   1
    37    28    29   1
    38    33    34   1
    39    34    35   2
    40    34    36  am
    41    37    38   1
    42     4    41   1
    43     7    42   1
    44     7    43   1
    45     8    44   1
    46     9    45   1
    47     9    46   1
    48    10    47   1
    49    11    48   1
    50    12    49   1
    51    13    50   1
    52    15    51   1
    53    16    52   1
    54    17    53   1
    55    18    54   1
    56    19    55   1
    57    22    56   1
    58    26    57   1
    59    26    58   1
    60    26    59   1
    61    27    60   1
    62    27    61   1
    63    27    62   1
    64    29    63   1
    65    29    64   1
    66    29    65   1
    67    30    66   1
    68    31    67   1
    69    31    68   1
    70    31    69   1
    71    32    70   1
    72    32    71   1
    73    32    72   1
    74    36    73   1
    75    36    74   1
    76    38    75   1
    77    38    76   1
    78    38    77   1
    79    39    78   1
    80    39    79   1
    81    39    80   1
@<TRIPOS>SUBSTRUCTURE
     1  GMY      1

