@<TRIPOS>MOLECULE
2yki_ligand_035
    52    58
SMALL
GAST_HUCK
****
This file was generated by PARSER (from files_GN.cpp)

@<TRIPOS>ATOM
      1 C1          0.8105    6.6618   32.8340 C.ar        1 YKI      -0.0069
      2 N1          2.1060    6.4252   33.1891 N.ar        1 YKI      -0.3145
      3 C2          3.1395    6.4735   32.3021 C.ar        1 YKI       0.0318
      4 N2          3.6189    6.9430   29.8807 N.pl3       1 YKI      -0.2421
      5 C3          0.4923    6.9718   31.4974 C.ar        1 YKI      -0.0358
      6 N3          1.5413    7.2969   29.2487 N.2         1 YKI      -0.2951
      7 C4          2.8264    7.2746   28.8380 C.2         1 YKI       0.1441
      8 N4          3.6703   10.7868   24.2430 N.am        1 YKI      -0.2584
      9 C5          1.5406    7.0198   30.5661 C.ar        1 YKI       0.0509
     10 N5          7.3699   14.1592   23.7633 N.ar        1 YKI      -0.2805
     11 C6          2.8538    6.7858   30.9629 C.ar        1 YKI       0.1092
     12 N6          5.9521   15.8451   24.8231 N.pl3       1 YKI      -0.2631
     13 C7          3.2999    7.5176   27.5265 C.ar        1 YKI       0.0361
     14 C8          4.4273    7.8836   24.9312 C.ar        1 YKI      -0.0512
     15 C9          4.9716    6.9347   25.8069 C.ar        1 YKI      -0.0623
     16 C10         4.4159    6.7557   27.0886 C.ar        1 YKI      -0.0499
     17 C11         4.4770   11.4370   25.0740 C.2         1 YKI       0.2116
     18 C12         5.3982   12.3390   24.5961 C.ar        1 YKI       0.0544
     19 O13         4.4960   11.1975   26.2769 O.2         1 YKI      -0.3825
     20 C14         6.5330   11.9025   23.8697 C.ar        1 YKI      -0.0315
     21 C15         7.5132   12.8386   23.4684 C.ar        1 YKI       0.0006
     22 C16         2.7312    9.7452   24.5764 C.3         1 YKI       0.1112
     23 C17         3.3344    8.6532   25.3600 C.ar        1 YKI       0.0062
     24 C18         2.7536    8.4925   26.6328 C.ar        1 YKI       0.0013
     25 C19         1.6726   10.1607   25.5052 C.ar        1 YKI       0.0020
     26 C20         1.7217    9.4524   26.7198 C.ar        1 YKI      -0.0129
     27 C21         0.8171    9.8171   27.7431 C.ar        1 YKI      -0.0610
     28 C22        -0.1593   10.8085   27.5105 C.ar        1 YKI      -0.0680
     29 C23        -0.2170   11.4716   26.2685 C.ar        1 YKI      -0.0680
     30 C24         0.7175   11.1674   25.2650 C.ar        1 YKI      -0.0553
     31 C25         5.2907   13.7187   24.8760 C.ar        1 YKI       0.0172
     32 C26         6.2857   14.6033   24.4457 C.ar        1 YKI       0.1409
     33 C27         4.7785   15.8105   25.4772 C.2         1 YKI       0.0293
     34 C28         4.3345   14.4921   25.5271 C.2         1 YKI      -0.0523
     35 H1          0.0776    6.6107   33.5420 H           1 YKI       0.0705
     36 H2          4.0952    6.3000   32.6141 H           1 YKI       0.0763
     37 H3          4.5866    6.8661   29.8548 H           1 YKI       0.2328
     38 H4         -0.4746    7.1602   31.2159 H           1 YKI       0.0643
     39 H5          3.7218   11.0309   23.3055 H           1 YKI       0.1910
     40 H6          6.4702   16.6472   24.6440 H           1 YKI       0.2313
     41 H7          4.8404    8.0324   24.0091 H           1 YKI       0.0605
     42 H8          5.7836    6.3823   25.5174 H           1 YKI       0.0605
     43 H9          4.8403    6.0507   27.6969 H           1 YKI       0.0619
     44 H10         6.6746   10.9096   23.6598 H           1 YKI       0.0656
     45 H11         8.3445   12.5228   22.9659 H           1 YKI       0.0758
     46 H12         2.2831    9.3514   23.6650 H           1 YKI       0.0919
     47 H13         0.8636    9.3950   28.6668 H           1 YKI       0.0603
     48 H14        -0.8221   11.0547   28.2493 H           1 YKI       0.0563
     49 H15        -0.9269   12.1896   26.1048 H           1 YKI       0.0597
     50 H16         0.7020   11.6692   24.3756 H           1 YKI       0.0566
     51 H17         4.2913   16.6189   25.8675 H           1 YKI       0.0983
     52 H18         3.4645   14.1632   25.9474 H           1 YKI       0.0310
@<TRIPOS>BOND
     1     1     2  ar
     2     5     1  ar
     3     3     2  ar
     4    11     3  ar
     5     7     4   1
     6     4    11   1
     7     9     5  ar
     8     7     6   2
     9     6     9   1
    10    13     7   1
    11     8    17  am
    12    22     8   1
    13     9    11  ar
    14    21    10  ar
    15    10    32  ar
    16    32    12   1
    17    12    33   1
    18    16    13  ar
    19    13    24  ar
    20    14    15  ar
    21    23    14  ar
    22    15    16  ar
    23    17    18   1
    24    17    19   2
    25    18    20  ar
    26    18    31  ar
    27    20    21  ar
    28    22    23   1
    29    22    25   1
    30    23    24  ar
    31    24    26   1
    32    25    26  ar
    33    25    30  ar
    34    26    27  ar
    35    27    28  ar
    36    28    29  ar
    37    29    30  ar
    38    31    32  ar
    39    31    34   1
    40    33    34   2
    41     1    35   1
    42     3    36   1
    43     4    37   1
    44     5    38   1
    45     8    39   1
    46    12    40   1
    47    14    41   1
    48    15    42   1
    49    16    43   1
    50    20    44   1
    51    21    45   1
    52    22    46   1
    53    27    47   1
    54    28    48   1
    55    29    49   1
    56    30    50   1
    57    33    51   1
    58    34    52   1
@<TRIPOS>SUBSTRUCTURE
     1  YKI      1

