@<TRIPOS>MOLECULE
2yki_ligand_020
    52    58
SMALL
GAST_HUCK
****
This file was generated by PARSER (from files_GN.cpp)

@<TRIPOS>ATOM
      1 C1          6.2907    4.5786   30.7216 C.ar        1 YKI      -0.0069
      2 N1          7.1365    3.7491   30.0407 N.ar        1 YKI      -0.3145
      3 C2          7.3349    3.8346   28.6962 C.ar        1 YKI       0.0318
      4 N2          6.6151    5.1611   26.6903 N.pl3       1 YKI      -0.2421
      5 C3          5.5709    5.5754   30.0356 C.ar        1 YKI      -0.0358
      6 N3          5.2150    6.5049   27.7457 N.2         1 YKI      -0.2951
      7 C4          5.7425    6.1745   26.5471 C.2         1 YKI       0.1441
      8 N4          1.7179    8.8214   23.2762 N.am        1 YKI      -0.2584
      9 C5          5.7596    5.6755   28.6452 C.ar        1 YKI       0.0509
     10 N5         -0.5910   13.3000   23.2850 N.ar        1 YKI      -0.2805
     11 C6          6.6370    4.8203   27.9828 C.ar        1 YKI       0.1092
     12 N6         -2.3289   11.7321   23.9611 N.pl3       1 YKI      -0.2631
     13 C7          5.4471    6.8245   25.3370 C.ar        1 YKI       0.0361
     14 C8          4.9516    8.2626   22.9359 C.ar        1 YKI      -0.0512
     15 C9          6.2529    8.2073   23.4725 C.ar        1 YKI      -0.0623
     16 C10         6.4937    7.5085   24.6705 C.ar        1 YKI      -0.0499
     17 C11         2.0567   10.0404   23.6919 C.2         1 YKI       0.2116
     18 C12         1.1634   11.1054   23.5694 C.ar        1 YKI       0.0544
     19 O13         3.1705   10.2622   24.1517 O.2         1 YKI      -0.3825
     20 C14         1.6326   12.3953   23.1939 C.ar        1 YKI      -0.0315
     21 C15         0.7362   13.4727   23.0456 C.ar        1 YKI       0.0006
     22 C16         2.4810    7.6018   23.2183 C.3         1 YKI       0.1112
     23 C17         3.9052    7.6186   23.6135 C.ar        1 YKI       0.0062
     24 C18         4.1465    6.8635   24.7765 C.ar        1 YKI       0.0013
     25 C19         1.9595    6.6358   24.1983 C.ar        1 YKI       0.0020
     26 C20         2.9432    6.2274   25.1105 C.ar        1 YKI      -0.0129
     27 C21         2.6298    5.2510   26.0831 C.ar        1 YKI      -0.0610
     28 C22         1.3239    4.7305   26.1527 C.ar        1 YKI      -0.0680
     29 C23         0.3365    5.1586   25.2403 C.ar        1 YKI      -0.0680
     30 C24         0.6534    6.1077   24.2511 C.ar        1 YKI      -0.0553
     31 C25        -0.2300   10.9791   23.8014 C.ar        1 YKI       0.0172
     32 C26        -1.0706   12.0891   23.6571 C.ar        1 YKI       0.1409
     33 C27        -2.3442   10.4349   24.3032 C.2         1 YKI       0.0293
     34 C28        -1.0501    9.9319   24.2202 C.2         1 YKI      -0.0523
     35 H1          6.1845    4.4696   31.7321 H           1 YKI       0.0705
     36 H2          7.9757    3.1943   28.2244 H           1 YKI       0.0763
     37 H3          7.1276    4.7435   25.9804 H           1 YKI       0.2328
     38 H4          4.9333    6.2068   30.5262 H           1 YKI       0.0643
     39 H5          0.8109    8.7351   22.9513 H           1 YKI       0.1910
     40 H6         -3.1066   12.3103   23.9664 H           1 YKI       0.2313
     41 H7          4.7734    8.7766   22.0706 H           1 YKI       0.0605
     42 H8          7.0187    8.6926   22.9995 H           1 YKI       0.0605
     43 H9          7.4399    7.5275   25.0672 H           1 YKI       0.0619
     44 H10         2.6248   12.5535   23.0037 H           1 YKI       0.0656
     45 H11         1.0788   14.3920   22.7591 H           1 YKI       0.0758
     46 H12         2.3940    7.1867   22.2114 H           1 YKI       0.0919
     47 H13         3.3381    4.8958   26.7232 H           1 YKI       0.0603
     48 H14         1.0931    4.0256   26.8569 H           1 YKI       0.0563
     49 H15        -0.6058    4.7663   25.2882 H           1 YKI       0.0597
     50 H16        -0.0558    6.4020   23.5760 H           1 YKI       0.0566
     51 H17        -3.1737    9.9163   24.5965 H           1 YKI       0.0983
     52 H18        -0.7676    8.9807   24.4529 H           1 YKI       0.0310
@<TRIPOS>BOND
     1     1     2  ar
     2     5     1  ar
     3     3     2  ar
     4    11     3  ar
     5     7     4   1
     6     4    11   1
     7     9     5  ar
     8     7     6   2
     9     6     9   1
    10    13     7   1
    11     8    17  am
    12    22     8   1
    13     9    11  ar
    14    21    10  ar
    15    10    32  ar
    16    32    12   1
    17    12    33   1
    18    16    13  ar
    19    13    24  ar
    20    14    15  ar
    21    23    14  ar
    22    15    16  ar
    23    17    18   1
    24    17    19   2
    25    18    20  ar
    26    18    31  ar
    27    20    21  ar
    28    22    23   1
    29    22    25   1
    30    23    24  ar
    31    24    26   1
    32    25    26  ar
    33    25    30  ar
    34    26    27  ar
    35    27    28  ar
    36    28    29  ar
    37    29    30  ar
    38    31    32  ar
    39    31    34   1
    40    33    34   2
    41     1    35   1
    42     3    36   1
    43     4    37   1
    44     5    38   1
    45     8    39   1
    46    12    40   1
    47    14    41   1
    48    15    42   1
    49    16    43   1
    50    20    44   1
    51    21    45   1
    52    22    46   1
    53    27    47   1
    54    28    48   1
    55    29    49   1
    56    30    50   1
    57    33    51   1
    58    34    52   1
@<TRIPOS>SUBSTRUCTURE
     1  YKI      1

