@<TRIPOS>MOLECULE
2yki_ligand_054
    52    58
SMALL
GAST_HUCK
****
This file was generated by PARSER (from files_GN.cpp)

@<TRIPOS>ATOM
      1 C1          9.3534    9.9786   22.5475 C.ar        1 YKI      -0.0069
      2 N1          8.9471   10.6983   21.4638 N.ar        1 YKI      -0.3145
      3 C2          7.6365   10.8625   21.1329 C.ar        1 YKI       0.0318
      4 N2          5.3386   10.2145   21.8862 N.pl3       1 YKI      -0.2421
      5 C3          8.4074    9.3608   23.3922 C.ar        1 YKI      -0.0358
      6 N3          5.9433    9.0308   23.6524 N.2         1 YKI      -0.2951
      7 C4          4.9006    9.4653   22.9110 C.2         1 YKI       0.1441
      8 N4          0.5515    5.6701   23.4928 N.am        1 YKI      -0.2584
      9 C5          7.0505    9.5136   23.0644 C.ar        1 YKI       0.0509
     10 N5         -1.3494    2.9506   27.2345 N.ar        1 YKI      -0.2805
     11 C6          6.6683   10.2564   21.9484 C.ar        1 YKI       0.1092
     12 N6         -1.5739    5.2571   27.9962 N.pl3       1 YKI      -0.2631
     13 C7          3.5475    9.1709   23.1310 C.ar        1 YKI       0.0361
     14 C8          0.7641    8.7364   23.4558 C.ar        1 YKI      -0.0512
     15 C9          1.3371    9.9623   23.8413 C.ar        1 YKI      -0.0623
     16 C10         2.7188   10.1774   23.6808 C.ar        1 YKI      -0.0499
     17 C11         0.9561    4.5703   24.1204 C.2         1 YKI       0.2116
     18 C12         0.1952    4.0450   25.1560 C.ar        1 YKI       0.0544
     19 O13         1.9841    3.9815   23.7979 O.2         1 YKI      -0.3825
     20 C14        -0.0199    2.6451   25.2628 C.ar        1 YKI      -0.0315
     21 C15        -0.8047    2.1181   26.3092 C.ar        1 YKI       0.0006
     22 C16         1.1453    6.4156   22.4144 C.3         1 YKI       0.1112
     23 C17         1.5866    7.7338   22.9039 C.ar        1 YKI       0.0062
     24 C18         2.9644    7.9387   22.7400 C.ar        1 YKI       0.0013
     25 C19         2.4107    5.9337   21.8320 C.ar        1 YKI       0.0020
     26 C20         3.4756    6.8092   22.0940 C.ar        1 YKI      -0.0129
     27 C21         4.7815    6.4600   21.6834 C.ar        1 YKI      -0.0610
     28 C22         4.9945    5.2419   21.0085 C.ar        1 YKI      -0.0680
     29 C23         3.9077    4.3951   20.7044 C.ar        1 YKI      -0.0680
     30 C24         2.6043    4.7473   21.1037 C.ar        1 YKI      -0.0553
     31 C25        -0.3879    4.8640   26.1546 C.ar        1 YKI       0.0172
     32 C26        -1.1514    4.2885   27.1699 C.ar        1 YKI       0.1409
     33 C27        -1.0946    6.4385   27.5706 C.2         1 YKI       0.0293
     34 C28        -0.3476    6.2271   26.4188 C.2         1 YKI      -0.0523
     35 H1         10.3512    9.8819   22.7392 H           1 YKI       0.0705
     36 H2          7.3705   11.4028   20.3091 H           1 YKI       0.0763
     37 H3          4.7821   10.6320   21.2118 H           1 YKI       0.2328
     38 H4          8.6992    8.8155   24.2064 H           1 YKI       0.0643
     39 H5         -0.2865    6.0454   23.8101 H           1 YKI       0.1910
     40 H6         -2.1184    5.1253   28.7870 H           1 YKI       0.2313
     41 H7         -0.2456    8.5886   23.5574 H           1 YKI       0.0605
     42 H8          0.7484   10.7008   24.2286 H           1 YKI       0.0605
     43 H9          3.1116   11.0822   23.9567 H           1 YKI       0.0619
     44 H10         0.3727    1.9983   24.5720 H           1 YKI       0.0656
     45 H11        -0.9648    1.1102   26.3778 H           1 YKI       0.0758
     46 H12         0.4074    6.5321   21.6231 H           1 YKI       0.0919
     47 H13         5.5728    7.0648   21.8725 H           1 YKI       0.0603
     48 H14         5.9395    4.9645   20.7487 H           1 YKI       0.0563
     49 H15         4.0725    3.5232   20.1942 H           1 YKI       0.0597
     50 H16         1.8251    4.1280   20.8929 H           1 YKI       0.0566
     51 H17        -1.2469    7.3433   28.0228 H           1 YKI       0.0983
     52 H18         0.1510    6.9441   25.8935 H           1 YKI       0.0310
@<TRIPOS>BOND
     1     1     2  ar
     2     5     1  ar
     3     3     2  ar
     4    11     3  ar
     5     7     4   1
     6     4    11   1
     7     9     5  ar
     8     7     6   2
     9     6     9   1
    10    13     7   1
    11     8    17  am
    12    22     8   1
    13     9    11  ar
    14    21    10  ar
    15    10    32  ar
    16    32    12   1
    17    12    33   1
    18    16    13  ar
    19    13    24  ar
    20    14    15  ar
    21    23    14  ar
    22    15    16  ar
    23    17    18   1
    24    17    19   2
    25    18    20  ar
    26    18    31  ar
    27    20    21  ar
    28    22    23   1
    29    22    25   1
    30    23    24  ar
    31    24    26   1
    32    25    26  ar
    33    25    30  ar
    34    26    27  ar
    35    27    28  ar
    36    28    29  ar
    37    29    30  ar
    38    31    32  ar
    39    31    34   1
    40    33    34   2
    41     1    35   1
    42     3    36   1
    43     4    37   1
    44     5    38   1
    45     8    39   1
    46    12    40   1
    47    14    41   1
    48    15    42   1
    49    16    43   1
    50    20    44   1
    51    21    45   1
    52    22    46   1
    53    27    47   1
    54    28    48   1
    55    29    49   1
    56    30    50   1
    57    33    51   1
    58    34    52   1
@<TRIPOS>SUBSTRUCTURE
     1  YKI      1

