@<TRIPOS>MOLECULE
2yki_ligand_048
    52    58
SMALL
GAST_HUCK
****
This file was generated by PARSER (from files_GN.cpp)

@<TRIPOS>ATOM
      1 C1         13.4944   -3.0481   17.8636 C.ar        1 YKI      -0.0069
      2 N1         13.8443   -1.8327   17.3503 N.ar        1 YKI      -0.3145
      3 C2         12.9507   -0.8220   17.1530 C.ar        1 YKI       0.0318
      4 N2         10.5111   -0.2796   17.4378 N.pl3       1 YKI      -0.2421
      5 C3         12.1550   -3.3097   18.2099 C.ar        1 YKI      -0.0358
      6 N3          9.9028   -2.2391   18.2531 N.2         1 YKI      -0.2951
      7 C4          9.4782   -1.0061   17.9116 C.2         1 YKI       0.1441
      8 N4          5.4289    2.9492   19.3860 N.am        1 YKI      -0.2584
      9 C5         11.2215   -2.2772   18.0189 C.ar        1 YKI       0.0509
     10 N5          3.4951    7.2861   18.0090 N.ar        1 YKI      -0.2805
     11 C6         11.6094   -1.0451   17.4999 C.ar        1 YKI       0.1092
     12 N6          2.3961    5.7742   16.4436 N.pl3       1 YKI      -0.2631
     13 C7          8.1402   -0.5813   17.9877 C.ar        1 YKI       0.0361
     14 C8          5.3901    0.1333   18.0921 C.ar        1 YKI      -0.0512
     15 C9          5.8280   -0.8616   17.2018 C.ar        1 YKI      -0.0623
     16 C10         7.1887   -1.2221   17.1545 C.ar        1 YKI      -0.0499
     17 C11         4.6655    3.8170   20.0354 C.2         1 YKI       0.2116
     18 C12         4.2270    4.9477   19.3843 C.ar        1 YKI       0.0544
     19 O13         4.4447    3.7087   21.2390 O.2         1 YKI      -0.3825
     20 C14         4.5864    6.2274   19.8724 C.ar        1 YKI      -0.0315
     21 C15         4.2162    7.3846   19.1577 C.ar        1 YKI       0.0006
     22 C16         6.0256    1.7761   19.9546 C.3         1 YKI       0.1112
     23 C17         6.3299    0.7678   18.9253 C.ar        1 YKI       0.0062
     24 C18         7.6963    0.4323   18.8777 C.ar        1 YKI       0.0013
     25 C19         7.3817    2.0127   20.4856 C.ar        1 YKI       0.0020
     26 C20         8.3451    1.2104   19.8509 C.ar        1 YKI      -0.0129
     27 C21         9.6876    1.2512   20.2842 C.ar        1 YKI      -0.0610
     28 C22        10.0491    2.1051   21.3450 C.ar        1 YKI      -0.0680
     29 C23         9.0767    2.9081   21.9748 C.ar        1 YKI      -0.0680
     30 C24         7.7363    2.8650   21.5479 C.ar        1 YKI      -0.0553
     31 C25         3.4534    4.8915   18.1986 C.ar        1 YKI       0.0172
     32 C26         3.1119    6.0729   17.5371 C.ar        1 YKI       0.1409
     33 C27         2.2311    4.4420   16.3787 C.2         1 YKI       0.0293
     34 C28         2.8858    3.8576   17.4594 C.2         1 YKI      -0.0523
     35 H1         14.2075   -3.7685   17.9837 H           1 YKI       0.0705
     36 H2         13.2565    0.0737   16.7667 H           1 YKI       0.0763
     37 H3         10.4657    0.6318   17.1125 H           1 YKI       0.2328
     38 H4         11.8693   -4.2130   18.5906 H           1 YKI       0.0643
     39 H5          5.6140    3.1356   18.4496 H           1 YKI       0.1910
     40 H6          2.0637    6.4176   15.8008 H           1 YKI       0.2313
     41 H7          4.4000    0.3826   18.1419 H           1 YKI       0.0605
     42 H8          5.1564   -1.3270   16.5897 H           1 YKI       0.0605
     43 H9          7.4789   -1.9549   16.4996 H           1 YKI       0.0619
     44 H10         5.1464    6.3286   20.7232 H           1 YKI       0.0656
     45 H11         4.5100    8.3059   19.4868 H           1 YKI       0.0758
     46 H12         5.3865    1.3230   20.7196 H           1 YKI       0.0919
     47 H13        10.4002    0.6579   19.8653 H           1 YKI       0.0603
     48 H14        11.0180    2.1301   21.6735 H           1 YKI       0.0563
     49 H15         9.3400    3.5098   22.7561 H           1 YKI       0.0597
     50 H16         7.0296    3.4377   22.0173 H           1 YKI       0.0566
     51 H17         1.7173    3.9452   15.6500 H           1 YKI       0.0983
     52 H18         2.9238    2.8588   17.6701 H           1 YKI       0.0310
@<TRIPOS>BOND
     1     1     2  ar
     2     5     1  ar
     3     3     2  ar
     4    11     3  ar
     5     7     4   1
     6     4    11   1
     7     9     5  ar
     8     7     6   2
     9     6     9   1
    10    13     7   1
    11     8    17  am
    12    22     8   1
    13     9    11  ar
    14    21    10  ar
    15    10    32  ar
    16    32    12   1
    17    12    33   1
    18    16    13  ar
    19    13    24  ar
    20    14    15  ar
    21    23    14  ar
    22    15    16  ar
    23    17    18   1
    24    17    19   2
    25    18    20  ar
    26    18    31  ar
    27    20    21  ar
    28    22    23   1
    29    22    25   1
    30    23    24  ar
    31    24    26   1
    32    25    26  ar
    33    25    30  ar
    34    26    27  ar
    35    27    28  ar
    36    28    29  ar
    37    29    30  ar
    38    31    32  ar
    39    31    34   1
    40    33    34   2
    41     1    35   1
    42     3    36   1
    43     4    37   1
    44     5    38   1
    45     8    39   1
    46    12    40   1
    47    14    41   1
    48    15    42   1
    49    16    43   1
    50    20    44   1
    51    21    45   1
    52    22    46   1
    53    27    47   1
    54    28    48   1
    55    29    49   1
    56    30    50   1
    57    33    51   1
    58    34    52   1
@<TRIPOS>SUBSTRUCTURE
     1  YKI      1

