@<TRIPOS>MOLECULE
2yki_ligand_002
    52    58
SMALL
GAST_HUCK
****
This file was generated by PARSER (from files_GN.cpp)

@<TRIPOS>ATOM
      1 C1         11.1718   14.6307   27.6466 C.ar        1 YKI      -0.0069
      2 N1         11.1686   15.6370   26.7252 N.ar        1 YKI      -0.3145
      3 C2         10.0867   15.9347   25.9530 C.ar        1 YKI       0.0318
      4 N2          7.7283   15.1784   25.5149 N.pl3       1 YKI      -0.2421
      5 C3         10.0227   13.8346   27.8300 C.ar        1 YKI      -0.0358
      6 N3          7.6950   13.5362   26.9879 N.2         1 YKI      -0.2951
      7 C4          7.0010   14.1594   26.0155 C.2         1 YKI       0.1441
      8 N4          3.0280   10.3040   24.0969 N.am        1 YKI      -0.2584
      9 C5          8.8934   14.1340   27.0521 C.ar        1 YKI       0.0509
     10 N5         -0.7252    7.4364   25.6090 N.ar        1 YKI      -0.2805
     11 C6          8.9200   15.1699   26.1222 C.ar        1 YKI       0.1092
     12 N6         -0.9248    9.1145   27.3785 N.pl3       1 YKI      -0.2631
     13 C7          5.7120   13.8166   25.5685 C.ar        1 YKI       0.0361
     14 C8          3.1134   13.4014   24.4925 C.ar        1 YKI      -0.0512
     15 C9          3.3897   14.5546   25.2433 C.ar        1 YKI      -0.0623
     16 C10         4.6836   14.7742   25.7513 C.ar        1 YKI      -0.0499
     17 C11         1.7541   10.2233   23.7379 C.2         1 YKI       0.2116
     18 C12         0.9482    9.3078   24.3635 C.ar        1 YKI       0.0544
     19 O13         1.2599   10.9045   22.8514 O.2         1 YKI      -0.3825
     20 C14         0.6620    8.0689   23.7466 C.ar        1 YKI      -0.0315
     21 C15        -0.1805    7.1390   24.3969 C.ar        1 YKI       0.0006
     22 C16         4.0029   11.1913   23.5349 C.3         1 YKI       0.1112
     23 C17         4.1272   12.4406   24.3103 C.ar        1 YKI       0.0062
     24 C18         5.4097   12.6169   24.8630 C.ar        1 YKI       0.0013
     25 C19         5.3669   10.6604   23.6981 C.ar        1 YKI       0.0020
     26 C20         6.1689   11.4887   24.5019 C.ar        1 YKI      -0.0129
     27 C21         7.4890   11.0860   24.8046 C.ar        1 YKI      -0.0610
     28 C22         7.9832    9.8620   24.3115 C.ar        1 YKI      -0.0680
     29 C23         7.1858    9.0644   23.4685 C.ar        1 YKI      -0.0680
     30 C24         5.8749    9.4657   23.1478 C.ar        1 YKI      -0.0553
     31 C25         0.3563    9.5775   25.6162 C.ar        1 YKI       0.0172
     32 C26        -0.4736    8.6244   26.2136 C.ar        1 YKI       0.1409
     33 C27        -0.4325   10.3525   27.5600 C.2         1 YKI       0.0293
     34 C28         0.3736   10.6747   26.4707 C.2         1 YKI      -0.0523
     35 H1         12.0199   14.4432   28.1865 H           1 YKI       0.0705
     36 H2         10.1371   16.6861   25.2654 H           1 YKI       0.0763
     37 H3          7.4576   15.7694   24.7927 H           1 YKI       0.2328
     38 H4         10.0151   13.0555   28.4897 H           1 YKI       0.0643
     39 H5          3.3304    9.6955   24.7900 H           1 YKI       0.1910
     40 H6         -1.5210    8.6504   27.9873 H           1 YKI       0.2313
     41 H7          2.1858   13.2627   24.0868 H           1 YKI       0.0605
     42 H8          2.6565   15.2504   25.3976 H           1 YKI       0.0605
     43 H9          4.8605   15.6464   26.2611 H           1 YKI       0.0619
     44 H10         1.0519    7.8334   22.8291 H           1 YKI       0.0656
     45 H11        -0.3932    6.2443   23.9501 H           1 YKI       0.0758
     46 H12         3.8111   11.4010   22.4786 H           1 YKI       0.0919
     47 H13         8.0960   11.6560   25.3841 H           1 YKI       0.0603
     48 H14         8.9252    9.5503   24.5629 H           1 YKI       0.0563
     49 H15         7.5558    8.1857   23.1012 H           1 YKI       0.0597
     50 H16         5.3012    8.8894   22.5278 H           1 YKI       0.0566
     51 H17        -0.6220   10.9548   28.3621 H           1 YKI       0.0983
     52 H18         0.8671   11.5567   26.3203 H           1 YKI       0.0310
@<TRIPOS>BOND
     1     1     2  ar
     2     5     1  ar
     3     3     2  ar
     4    11     3  ar
     5     7     4   1
     6     4    11   1
     7     9     5  ar
     8     7     6   2
     9     6     9   1
    10    13     7   1
    11     8    17  am
    12    22     8   1
    13     9    11  ar
    14    21    10  ar
    15    10    32  ar
    16    32    12   1
    17    12    33   1
    18    16    13  ar
    19    13    24  ar
    20    14    15  ar
    21    23    14  ar
    22    15    16  ar
    23    17    18   1
    24    17    19   2
    25    18    20  ar
    26    18    31  ar
    27    20    21  ar
    28    22    23   1
    29    22    25   1
    30    23    24  ar
    31    24    26   1
    32    25    26  ar
    33    25    30  ar
    34    26    27  ar
    35    27    28  ar
    36    28    29  ar
    37    29    30  ar
    38    31    32  ar
    39    31    34   1
    40    33    34   2
    41     1    35   1
    42     3    36   1
    43     4    37   1
    44     5    38   1
    45     8    39   1
    46    12    40   1
    47    14    41   1
    48    15    42   1
    49    16    43   1
    50    20    44   1
    51    21    45   1
    52    22    46   1
    53    27    47   1
    54    28    48   1
    55    29    49   1
    56    30    50   1
    57    33    51   1
    58    34    52   1
@<TRIPOS>SUBSTRUCTURE
     1  YKI      1

