@<TRIPOS>MOLECULE
2yki_ligand_010
    52    58
SMALL
GAST_HUCK
****
This file was generated by PARSER (from files_GN.cpp)

@<TRIPOS>ATOM
      1 C1          3.8755    9.0642   29.2384 C.ar        1 YKI      -0.0069
      2 N1          4.7357    8.2152   29.8683 N.ar        1 YKI      -0.3145
      3 C2          5.2925    7.1314   29.2575 C.ar        1 YKI       0.0318
      4 N2          5.3432    5.9412   27.0556 N.pl3       1 YKI      -0.2421
      5 C3          3.5158    8.8421   27.8948 C.ar        1 YKI      -0.0358
      6 N3          3.9397    7.2698   25.9863 N.2         1 YKI      -0.2951
      7 C4          4.7105    6.1650   25.8869 C.2         1 YKI       0.1441
      8 N4          2.5207    3.2494   21.3085 N.am        1 YKI      -0.2584
      9 C5          4.0749    7.7269   27.2437 C.ar        1 YKI       0.0509
     10 N5          1.1757    4.0852   16.5780 N.ar        1 YKI      -0.2805
     11 C6          4.9587    6.8855   27.9163 C.ar        1 YKI       0.1092
     12 N6          2.8311    5.8767   16.5805 N.pl3       1 YKI      -0.2631
     13 C7          4.9026    5.4038   24.7183 C.ar        1 YKI       0.0361
     14 C8          5.4546    3.8884   22.3679 C.ar        1 YKI      -0.0512
     15 C9          6.4278    4.7474   22.9028 C.ar        1 YKI      -0.0623
     16 C10         6.1581    5.4932   24.0669 C.ar        1 YKI      -0.0499
     17 C11         3.0418    2.8973   20.1388 C.2         1 YKI       0.2116
     18 C12         2.4091    3.2838   18.9757 C.ar        1 YKI       0.0544
     19 O13         4.0787    2.2501   20.0442 O.2         1 YKI      -0.3825
     20 C14         1.2990    2.5754   18.4531 C.ar        1 YKI      -0.0315
     21 C15         0.7017    2.9978   17.2451 C.ar        1 YKI       0.0006
     22 C16         3.0700    2.9323   22.5952 C.3         1 YKI       0.1112
     23 C17         4.1976    3.8011   22.9999 C.ar        1 YKI       0.0062
     24 C18         3.9208    4.5381   24.1672 C.ar        1 YKI       0.0013
     25 C19         2.1151    3.2590   23.6663 C.ar        1 YKI       0.0020
     26 C20         2.6342    4.1844   24.5885 C.ar        1 YKI      -0.0129
     27 C21         1.8702    4.5530   25.7176 C.ar        1 YKI      -0.0610
     28 C22         0.5738    4.0207   25.8846 C.ar        1 YKI      -0.0680
     29 C23         0.0545    3.1076   24.9441 C.ar        1 YKI      -0.0680
     30 C24         0.8264    2.7139   23.8353 C.ar        1 YKI      -0.0553
     31 C25         2.8646    4.4054   18.2514 C.ar        1 YKI       0.0172
     32 C26         2.2313    4.7815   17.0651 C.ar        1 YKI       0.1409
     33 C27         3.8287    6.2342   17.4139 C.2         1 YKI       0.0293
     34 C28         3.8828    5.3269   18.4670 C.2         1 YKI      -0.0523
     35 H1          3.5018    9.8672   29.7497 H           1 YKI       0.0705
     36 H2          5.9334    6.5220   29.7617 H           1 YKI       0.0763
     37 H3          5.9587    5.2140   27.2440 H           1 YKI       0.2328
     38 H4          2.8705    9.4708   27.4091 H           1 YKI       0.0643
     39 H5          1.6539    3.6892   21.2838 H           1 YKI       0.1910
     40 H6          2.5787    6.3409   15.7663 H           1 YKI       0.2313
     41 H7          5.6693    3.3348   21.5386 H           1 YKI       0.0605
     42 H8          7.3406    4.8216   22.4496 H           1 YKI       0.0605
     43 H9          6.8901    6.1099   24.4342 H           1 YKI       0.0619
     44 H10         0.9313    1.7558   18.9430 H           1 YKI       0.0656
     45 H11        -0.0944    2.4913   16.8615 H           1 YKI       0.0758
     46 H12         3.3438    1.8760   22.6637 H           1 YKI       0.0919
     47 H13         2.2356    5.1838   26.4255 H           1 YKI       0.0603
     48 H14         0.0116    4.2921   26.6948 H           1 YKI       0.0563
     49 H15        -0.8873    2.7271   25.0686 H           1 YKI       0.0597
     50 H16         0.4586    2.0437   23.1575 H           1 YKI       0.0566
     51 H17         4.4422    7.0388   17.2943 H           1 YKI       0.0983
     52 H18         4.5395    5.3449   19.2516 H           1 YKI       0.0310
@<TRIPOS>BOND
     1     1     2  ar
     2     5     1  ar
     3     3     2  ar
     4    11     3  ar
     5     7     4   1
     6     4    11   1
     7     9     5  ar
     8     7     6   2
     9     6     9   1
    10    13     7   1
    11     8    17  am
    12    22     8   1
    13     9    11  ar
    14    21    10  ar
    15    10    32  ar
    16    32    12   1
    17    12    33   1
    18    16    13  ar
    19    13    24  ar
    20    14    15  ar
    21    23    14  ar
    22    15    16  ar
    23    17    18   1
    24    17    19   2
    25    18    20  ar
    26    18    31  ar
    27    20    21  ar
    28    22    23   1
    29    22    25   1
    30    23    24  ar
    31    24    26   1
    32    25    26  ar
    33    25    30  ar
    34    26    27  ar
    35    27    28  ar
    36    28    29  ar
    37    29    30  ar
    38    31    32  ar
    39    31    34   1
    40    33    34   2
    41     1    35   1
    42     3    36   1
    43     4    37   1
    44     5    38   1
    45     8    39   1
    46    12    40   1
    47    14    41   1
    48    15    42   1
    49    16    43   1
    50    20    44   1
    51    21    45   1
    52    22    46   1
    53    27    47   1
    54    28    48   1
    55    29    49   1
    56    30    50   1
    57    33    51   1
    58    34    52   1
@<TRIPOS>SUBSTRUCTURE
     1  YKI      1

