@<TRIPOS>MOLECULE
2yki_ligand_092
    52    58
SMALL
GAST_HUCK
****
This file was generated by PARSER (from files_GN.cpp)

@<TRIPOS>ATOM
      1 C1          2.7322    5.1205   16.8402 C.ar        1 YKI      -0.0069
      2 N1          1.9200    4.1560   17.3631 N.ar        1 YKI      -0.3145
      3 C2          1.9393    3.7907   18.6790 C.ar        1 YKI       0.0318
      4 N2          3.1278    4.3045   20.8324 N.pl3       1 YKI      -0.2421
      5 C3          3.6609    5.7796   17.6688 C.ar        1 YKI      -0.0358
      6 N3          4.4756    5.8543   20.0317 N.2         1 YKI      -0.2951
      7 C4          4.1045    5.1719   21.1374 C.2         1 YKI       0.1441
      8 N4          4.3855    6.7387   26.7872 N.am        1 YKI      -0.2584
      9 C5          3.6977    5.4160   19.0259 C.ar        1 YKI       0.0509
     10 N5          3.6976    5.2489   31.5459 N.ar        1 YKI      -0.2805
     11 C6          2.8486    4.4376   19.5329 C.ar        1 YKI       0.1092
     12 N6          2.1894    7.0473   32.1865 N.pl3       1 YKI      -0.2631
     13 C7          4.7700    5.2856   22.3703 C.ar        1 YKI       0.0361
     14 C8          6.3869    5.7286   24.6665 C.ar        1 YKI      -0.0512
     15 C9          6.8146    4.8402   23.6661 C.ar        1 YKI      -0.0623
     16 C10         6.0254    4.6396   22.5166 C.ar        1 YKI      -0.0499
     17 C11         4.1657    7.3867   27.9258 C.2         1 YKI       0.2116
     18 C12         4.0070    6.6877   29.1267 C.ar        1 YKI       0.0544
     19 O13         4.1298    8.6097   27.9325 O.2         1 YKI      -0.3825
     20 C14         4.6814    5.4529   29.3620 C.ar        1 YKI      -0.0315
     21 C15         4.5180    4.7587   30.5798 C.ar        1 YKI       0.0006
     22 C16         4.5475    7.3234   25.4880 C.3         1 YKI       0.1112
     23 C17         5.1354    6.3591   24.5400 C.ar        1 YKI       0.0062
     24 C18         4.3074    6.1096   23.4328 C.ar        1 YKI       0.0013
     25 C19         3.2553    7.5740   24.8220 C.ar        1 YKI       0.0020
     26 C20         3.1232    6.8304   23.6402 C.ar        1 YKI      -0.0129
     27 C21         1.9043    6.8487   22.9306 C.ar        1 YKI      -0.0610
     28 C22         0.8401    7.6455   23.4040 C.ar        1 YKI      -0.0680
     29 C23         1.0029    8.4355   24.5616 C.ar        1 YKI      -0.0680
     30 C24         2.2126    8.4039   25.2747 C.ar        1 YKI      -0.0553
     31 C25         3.1704    7.1551   30.1770 C.ar        1 YKI       0.0172
     32 C26         3.0386    6.4174   31.3583 C.ar        1 YKI       0.1409
     33 C27         1.7534    8.1718   31.5919 C.2         1 YKI       0.0293
     34 C28         2.3417    8.2673   30.3340 C.2         1 YKI      -0.0523
     35 H1          2.6707    5.3463   15.8491 H           1 YKI       0.0705
     36 H2          1.3123    3.0679   19.0338 H           1 YKI       0.0763
     37 H3          2.7201    3.6684   21.4433 H           1 YKI       0.2328
     38 H4          4.2880    6.4992   17.2989 H           1 YKI       0.0643
     39 H5          4.4508    5.7706   26.8323 H           1 YKI       0.1910
     40 H6          1.9160    6.7314   33.0617 H           1 YKI       0.2313
     41 H7          6.9772    5.9064   25.4844 H           1 YKI       0.0605
     42 H8          7.7163    4.3696   23.7546 H           1 YKI       0.0605
     43 H9          6.3842    4.0296   21.7741 H           1 YKI       0.0619
     44 H10         5.3146    5.0555   28.6671 H           1 YKI       0.0656
     45 H11         5.0133    3.8757   30.7319 H           1 YKI       0.0758
     46 H12         5.1705    8.2213   25.5252 H           1 YKI       0.0919
     47 H13         1.7741    6.2799   22.0965 H           1 YKI       0.0603
     48 H14        -0.0533    7.6519   22.9120 H           1 YKI       0.0563
     49 H15         0.2360    9.0236   24.9003 H           1 YKI       0.0597
     50 H16         2.3139    8.9725   26.1137 H           1 YKI       0.0566
     51 H17         1.0911    8.8354   31.9890 H           1 YKI       0.0983
     52 H18         2.1791    9.0237   29.6683 H           1 YKI       0.0310
@<TRIPOS>BOND
     1     1     2  ar
     2     5     1  ar
     3     3     2  ar
     4    11     3  ar
     5     7     4   1
     6     4    11   1
     7     9     5  ar
     8     7     6   2
     9     6     9   1
    10    13     7   1
    11     8    17  am
    12    22     8   1
    13     9    11  ar
    14    21    10  ar
    15    10    32  ar
    16    32    12   1
    17    12    33   1
    18    16    13  ar
    19    13    24  ar
    20    14    15  ar
    21    23    14  ar
    22    15    16  ar
    23    17    18   1
    24    17    19   2
    25    18    20  ar
    26    18    31  ar
    27    20    21  ar
    28    22    23   1
    29    22    25   1
    30    23    24  ar
    31    24    26   1
    32    25    26  ar
    33    25    30  ar
    34    26    27  ar
    35    27    28  ar
    36    28    29  ar
    37    29    30  ar
    38    31    32  ar
    39    31    34   1
    40    33    34   2
    41     1    35   1
    42     3    36   1
    43     4    37   1
    44     5    38   1
    45     8    39   1
    46    12    40   1
    47    14    41   1
    48    15    42   1
    49    16    43   1
    50    20    44   1
    51    21    45   1
    52    22    46   1
    53    27    47   1
    54    28    48   1
    55    29    49   1
    56    30    50   1
    57    33    51   1
    58    34    52   1
@<TRIPOS>SUBSTRUCTURE
     1  YKI      1

