@<TRIPOS>MOLECULE
2yki_ligand_015
    52    58
SMALL
GAST_HUCK
****
This file was generated by PARSER (from files_GN.cpp)

@<TRIPOS>ATOM
      1 C1          9.4111   10.6408   21.3421 C.ar        1 YKI      -0.0069
      2 N1          9.6965    9.9934   22.5089 N.ar        1 YKI      -0.3145
      3 C2          8.7350    9.5136   23.3461 C.ar        1 YKI       0.0318
      4 N2          6.2319    9.3779   23.5818 N.pl3       1 YKI      -0.2421
      5 C3          8.0710   10.8296   20.9447 C.ar        1 YKI      -0.0358
      6 N3          5.7302   10.4011   21.6900 N.2         1 YKI      -0.2951
      7 C4          5.2294    9.8128   22.7963 C.2         1 YKI       0.1441
      8 N4         -0.0144   12.1554   23.7785 N.am        1 YKI      -0.2584
      9 C5          7.0657   10.3481   21.8009 C.ar        1 YKI       0.0509
     10 N5         -3.4494   14.0380   20.4951 N.ar        1 YKI      -0.2805
     11 C6          7.3885    9.7011   22.9917 C.ar        1 YKI       0.1092
     12 N6         -4.4073   14.3640   22.6648 N.pl3       1 YKI      -0.2631
     13 C7          3.8664    9.6699   23.0966 C.ar        1 YKI       0.0361
     14 C8          1.1281    9.2522   23.7383 C.ar        1 YKI      -0.0512
     15 C9          1.8825    8.2228   23.1460 C.ar        1 YKI      -0.0623
     16 C10         3.2408    8.4286   22.8303 C.ar        1 YKI      -0.0499
     17 C11        -0.0697   12.4127   22.4769 C.2         1 YKI       0.2116
     18 C12        -1.2293   12.9164   21.8632 C.ar        1 YKI       0.0544
     19 O13         0.9189   12.1555   21.7931 O.2         1 YKI      -0.3825
     20 C14        -1.2812   12.9972   20.4410 C.ar        1 YKI      -0.0315
     21 C15        -2.3909   13.5768   19.7922 C.ar        1 YKI       0.0006
     22 C16         1.1047   11.6947   24.5492 C.3         1 YKI       0.1112
     23 C17         1.7500   10.4881   23.9968 C.ar        1 YKI       0.0062
     24 C18         3.0991   10.7110   23.6775 C.ar        1 YKI       0.0013
     25 C19         2.2411   12.6298   24.5597 C.ar        1 YKI       0.0020
     26 C20         3.3975   12.0356   24.0322 C.ar        1 YKI      -0.0129
     27 C21         4.5837   12.7919   23.9525 C.ar        1 YKI      -0.0610
     28 C22         4.5951   14.1273   24.4032 C.ar        1 YKI      -0.0680
     29 C23         3.4207   14.7152   24.9177 C.ar        1 YKI      -0.0680
     30 C24         2.2290   13.9706   24.9881 C.ar        1 YKI      -0.0553
     31 C25        -2.3761   13.4053   22.5615 C.ar        1 YKI       0.0172
     32 C26        -3.4444   13.9531   21.8385 C.ar        1 YKI       0.1409
     33 C27        -4.0226   14.1190   23.9213 C.2         1 YKI       0.0293
     34 C28        -2.7650   13.5322   23.8971 C.2         1 YKI      -0.0523
     35 H1         10.1754   10.9816   20.7537 H           1 YKI       0.0705
     36 H2          8.9976    9.0349   24.2092 H           1 YKI       0.0763
     37 H3          6.1323    8.9255   24.4331 H           1 YKI       0.2328
     38 H4          7.8352   11.2989   20.0665 H           1 YKI       0.0643
     39 H5         -0.8321   12.2608   24.2721 H           1 YKI       0.1910
     40 H6         -5.2397   14.7751   22.4024 H           1 YKI       0.2313
     41 H7          0.1411    9.1054   23.9569 H           1 YKI       0.0605
     42 H8          1.4401    7.3251   22.9338 H           1 YKI       0.0605
     43 H9          3.7644    7.6637   22.3921 H           1 YKI       0.0619
     44 H10        -0.5210   12.6294   19.8603 H           1 YKI       0.0656
     45 H11        -2.4111   13.6569   18.7795 H           1 YKI       0.0758
     46 H12         0.7694   11.5066   25.5758 H           1 YKI       0.0919
     47 H13         5.4380   12.3910   23.5761 H           1 YKI       0.0603
     48 H14         5.4593   14.6689   24.3648 H           1 YKI       0.0563
     49 H15         3.4370   15.6835   25.2389 H           1 YKI       0.0597
     50 H16         1.3757   14.3973   25.3570 H           1 YKI       0.0566
     51 H17        -4.5662   14.3241   24.7562 H           1 YKI       0.0983
     52 H18        -2.2478   13.2542   24.7267 H           1 YKI       0.0310
@<TRIPOS>BOND
     1     1     2  ar
     2     5     1  ar
     3     3     2  ar
     4    11     3  ar
     5     7     4   1
     6     4    11   1
     7     9     5  ar
     8     7     6   2
     9     6     9   1
    10    13     7   1
    11     8    17  am
    12    22     8   1
    13     9    11  ar
    14    21    10  ar
    15    10    32  ar
    16    32    12   1
    17    12    33   1
    18    16    13  ar
    19    13    24  ar
    20    14    15  ar
    21    23    14  ar
    22    15    16  ar
    23    17    18   1
    24    17    19   2
    25    18    20  ar
    26    18    31  ar
    27    20    21  ar
    28    22    23   1
    29    22    25   1
    30    23    24  ar
    31    24    26   1
    32    25    26  ar
    33    25    30  ar
    34    26    27  ar
    35    27    28  ar
    36    28    29  ar
    37    29    30  ar
    38    31    32  ar
    39    31    34   1
    40    33    34   2
    41     1    35   1
    42     3    36   1
    43     4    37   1
    44     5    38   1
    45     8    39   1
    46    12    40   1
    47    14    41   1
    48    15    42   1
    49    16    43   1
    50    20    44   1
    51    21    45   1
    52    22    46   1
    53    27    47   1
    54    28    48   1
    55    29    49   1
    56    30    50   1
    57    33    51   1
    58    34    52   1
@<TRIPOS>SUBSTRUCTURE
     1  YKI      1

