@<TRIPOS>MOLECULE
2yki_ligand_032
    52    58
SMALL
GAST_HUCK
****
This file was generated by PARSER (from files_GN.cpp)

@<TRIPOS>ATOM
      1 C1          4.7461    1.2221   35.7841 C.ar        1 YKI      -0.0069
      2 N1          5.3528    2.1620   36.5646 N.ar        1 YKI      -0.3145
      3 C2          5.3293    3.4939   36.2776 C.ar        1 YKI       0.0318
      4 N2          4.4393    5.1167   34.5807 N.pl3       1 YKI      -0.2421
      5 C3          4.0502    1.6102   34.6199 C.ar        1 YKI      -0.0358
      6 N3          3.4221    3.6327   33.2957 N.2         1 YKI      -0.2951
      7 C4          3.6961    4.9401   33.4710 C.2         1 YKI       0.1441
      8 N4          4.1522    7.9786   28.5243 N.am        1 YKI      -0.2584
      9 C5          4.0114    2.9790   34.3099 C.ar        1 YKI       0.0509
     10 N5          2.6141    7.0191   23.8908 N.ar        1 YKI      -0.2805
     11 C6          4.6465    3.9141   35.1248 C.ar        1 YKI       0.1092
     12 N6          0.3510    6.8694   24.8185 N.pl3       1 YKI      -0.2631
     13 C7          3.2504    5.9782   32.6410 C.ar        1 YKI       0.0361
     14 C8          2.2717    8.1118   31.0448 C.ar        1 YKI      -0.0512
     15 C9          1.4492    7.5283   32.0241 C.ar        1 YKI      -0.0623
     16 C10         1.9321    6.4657   32.8157 C.ar        1 YKI      -0.0499
     17 C11         3.8269    6.8627   27.8859 C.2         1 YKI       0.2116
     18 C12         3.4440    6.9290   26.5707 C.ar        1 YKI       0.0544
     19 O13         3.8091    5.7622   28.4277 O.2         1 YKI      -0.3825
     20 C14         4.3886    7.0549   25.5234 C.ar        1 YKI      -0.0315
     21 C15         3.9423    7.0845   24.1809 C.ar        1 YKI       0.0006
     22 C16         4.5759    8.1106   29.8918 C.3         1 YKI       0.1112
     23 C17         3.5810    7.6265   30.8688 C.ar        1 YKI       0.0062
     24 C18         4.0770    6.5714   31.6552 C.ar        1 YKI       0.0013
     25 C19         5.7247    7.2542   30.2393 C.ar        1 YKI       0.0020
     26 C20         5.3975    6.3284   31.2419 C.ar        1 YKI      -0.0129
     27 C21         6.3448    5.3554   31.6325 C.ar        1 YKI      -0.0610
     28 C22         7.6032    5.3186   30.9963 C.ar        1 YKI      -0.0680
     29 C23         7.9289    6.2648   30.0041 C.ar        1 YKI      -0.0680
     30 C24         6.9921    7.2465   29.6243 C.ar        1 YKI      -0.0553
     31 C25         2.0794    6.8723   26.2226 C.ar        1 YKI       0.0172
     32 C26         1.6920    6.9238   24.8826 C.ar        1 YKI       0.1409
     33 C27        -0.1441    6.7920   26.0676 C.2         1 YKI       0.0293
     34 C28         0.9116    6.7953   26.9728 C.2         1 YKI      -0.0523
     35 H1          4.7937    0.2371   36.0500 H           1 YKI       0.0705
     36 H2          5.7948    4.1648   36.8898 H           1 YKI       0.0763
     37 H3          4.7568    5.9647   34.9252 H           1 YKI       0.2328
     38 H4          3.5863    0.9206   34.0241 H           1 YKI       0.0643
     39 H5          4.0814    8.8033   28.0161 H           1 YKI       0.1910
     40 H6         -0.1815    6.8881   24.0050 H           1 YKI       0.2313
     41 H7          1.9225    8.8823   30.4711 H           1 YKI       0.0605
     42 H8          0.4961    7.8727   32.1618 H           1 YKI       0.0605
     43 H9          1.3133    6.0535   33.5188 H           1 YKI       0.0619
     44 H10         5.3911    7.1098   25.7223 H           1 YKI       0.0656
     45 H11         4.6173    7.1612   23.4184 H           1 YKI       0.0758
     46 H12         4.8137    9.1582   30.0931 H           1 YKI       0.0919
     47 H13         6.1273    4.6593   32.3443 H           1 YKI       0.0603
     48 H14         8.2812    4.5980   31.2546 H           1 YKI       0.0563
     49 H15         8.8438    6.2334   29.5517 H           1 YKI       0.0597
     50 H16         7.2254    7.9305   28.9035 H           1 YKI       0.0566
     51 H17        -1.1331    6.7331   26.3112 H           1 YKI       0.0983
     52 H18         0.8405    6.7553   27.9926 H           1 YKI       0.0310
@<TRIPOS>BOND
     1     1     2  ar
     2     5     1  ar
     3     3     2  ar
     4    11     3  ar
     5     7     4   1
     6     4    11   1
     7     9     5  ar
     8     7     6   2
     9     6     9   1
    10    13     7   1
    11     8    17  am
    12    22     8   1
    13     9    11  ar
    14    21    10  ar
    15    10    32  ar
    16    32    12   1
    17    12    33   1
    18    16    13  ar
    19    13    24  ar
    20    14    15  ar
    21    23    14  ar
    22    15    16  ar
    23    17    18   1
    24    17    19   2
    25    18    20  ar
    26    18    31  ar
    27    20    21  ar
    28    22    23   1
    29    22    25   1
    30    23    24  ar
    31    24    26   1
    32    25    26  ar
    33    25    30  ar
    34    26    27  ar
    35    27    28  ar
    36    28    29  ar
    37    29    30  ar
    38    31    32  ar
    39    31    34   1
    40    33    34   2
    41     1    35   1
    42     3    36   1
    43     4    37   1
    44     5    38   1
    45     8    39   1
    46    12    40   1
    47    14    41   1
    48    15    42   1
    49    16    43   1
    50    20    44   1
    51    21    45   1
    52    22    46   1
    53    27    47   1
    54    28    48   1
    55    29    49   1
    56    30    50   1
    57    33    51   1
    58    34    52   1
@<TRIPOS>SUBSTRUCTURE
     1  YKI      1

