@<TRIPOS>MOLECULE
2yki_ligand_056
    52    58
SMALL
GAST_HUCK
****
This file was generated by PARSER (from files_GN.cpp)

@<TRIPOS>ATOM
      1 C1          0.8982   15.1322   24.5266 C.ar        1 YKI      -0.0069
      2 N1          2.1823   14.9737   24.9553 N.ar        1 YKI      -0.3145
      3 C2          2.7672   13.7545   25.1153 C.ar        1 YKI       0.0318
      4 N2          2.3010   11.3018   24.8189 N.pl3       1 YKI      -0.2421
      5 C3          0.1069   14.0011   24.2296 C.ar        1 YKI      -0.0358
      6 N3          0.2230   11.5109   24.1091 N.2         1 YKI      -0.2951
      7 C4          1.2196   10.6335   24.3621 C.2         1 YKI       0.1441
      8 N4          3.6592    5.4281   23.2193 N.am        1 YKI      -0.2584
      9 C5          0.7002   12.7372   24.3713 C.ar        1 YKI       0.0509
     10 N5          6.5525    2.5175   26.0941 N.ar        1 YKI      -0.2805
     11 C6          2.0128   12.6093   24.8124 C.ar        1 YKI       0.1092
     12 N6          8.1609    2.7159   24.2720 N.pl3       1 YKI      -0.2631
     13 C7          1.1086    9.2384   24.1878 C.ar        1 YKI       0.0361
     14 C8          0.7206    6.4308   23.8824 C.ar        1 YKI      -0.0512
     15 C9         -0.2204    7.2028   24.5808 C.ar        1 YKI      -0.0623
     16 C10        -0.0330    8.5907   24.7258 C.ar        1 YKI      -0.0499
     17 C11         4.5276    5.6441   24.2060 C.2         1 YKI       0.2116
     18 C12         5.1807    4.5919   24.7949 C.ar        1 YKI       0.0544
     19 O13         4.7605    6.7678   24.6415 O.2         1 YKI      -0.3825
     20 C14         4.6903    4.0406   26.0043 C.ar        1 YKI      -0.0315
     21 C15         5.3965    2.9925   26.6338 C.ar        1 YKI       0.0006
     22 C16         2.8838    6.4145   22.5163 C.3         1 YKI       0.1112
     23 C17         1.8412    7.0701   23.3233 C.ar        1 YKI       0.0062
     24 C18         2.0549    8.4551   23.4710 C.ar        1 YKI       0.0013
     25 C19         3.6721    7.5869   22.1280 C.ar        1 YKI       0.0020
     26 C20         3.2240    8.7634   22.7510 C.ar        1 YKI      -0.0129
     27 C21         3.9479    9.9609   22.5567 C.ar        1 YKI      -0.0610
     28 C22         5.0941    9.9559   21.7338 C.ar        1 YKI      -0.0680
     29 C23         5.5021    8.7772   21.0836 C.ar        1 YKI      -0.0680
     30 C24         4.7961    7.5788   21.2824 C.ar        1 YKI      -0.0553
     31 C25         6.3798    4.0642   24.2675 C.ar        1 YKI       0.0172
     32 C26         7.0422    3.0345   24.9424 C.ar        1 YKI       0.1409
     33 C27         8.2554    3.4996   23.1834 C.2         1 YKI       0.0293
     34 C28         7.1587    4.3576   23.1489 C.2         1 YKI      -0.0523
     35 H1          0.5091   16.0706   24.4257 H           1 YKI       0.0705
     36 H2          3.7325   13.6771   25.4400 H           1 YKI       0.0763
     37 H3          3.1459   10.9117   25.0783 H           1 YKI       0.2328
     38 H4         -0.8636   14.0953   23.9184 H           1 YKI       0.0643
     39 H5          3.5309    4.5060   22.9502 H           1 YKI       0.1910
     40 H6          8.8005    2.0368   24.5358 H           1 YKI       0.2313
     41 H7          0.5871    5.4236   23.7736 H           1 YKI       0.0605
     42 H8         -1.0495    6.7540   24.9804 H           1 YKI       0.0605
     43 H9         -0.7400    9.1211   25.2431 H           1 YKI       0.0619
     44 H10         3.8239    4.3861   26.4265 H           1 YKI       0.0656
     45 H11         5.0452    2.5872   27.5015 H           1 YKI       0.0758
     46 H12         2.4316    5.9640   21.6282 H           1 YKI       0.0919
     47 H13         3.6479   10.8411   22.9773 H           1 YKI       0.0603
     48 H14         5.6272   10.8156   21.5959 H           1 YKI       0.0563
     49 H15         6.3180    8.7927   20.4720 H           1 YKI       0.0597
     50 H16         5.0995    6.7103   20.8361 H           1 YKI       0.0566
     51 H17         9.0135    3.4705   22.5007 H           1 YKI       0.0983
     52 H18         6.9697    5.0682   22.4411 H           1 YKI       0.0310
@<TRIPOS>BOND
     1     1     2  ar
     2     5     1  ar
     3     3     2  ar
     4    11     3  ar
     5     7     4   1
     6     4    11   1
     7     9     5  ar
     8     7     6   2
     9     6     9   1
    10    13     7   1
    11     8    17  am
    12    22     8   1
    13     9    11  ar
    14    21    10  ar
    15    10    32  ar
    16    32    12   1
    17    12    33   1
    18    16    13  ar
    19    13    24  ar
    20    14    15  ar
    21    23    14  ar
    22    15    16  ar
    23    17    18   1
    24    17    19   2
    25    18    20  ar
    26    18    31  ar
    27    20    21  ar
    28    22    23   1
    29    22    25   1
    30    23    24  ar
    31    24    26   1
    32    25    26  ar
    33    25    30  ar
    34    26    27  ar
    35    27    28  ar
    36    28    29  ar
    37    29    30  ar
    38    31    32  ar
    39    31    34   1
    40    33    34   2
    41     1    35   1
    42     3    36   1
    43     4    37   1
    44     5    38   1
    45     8    39   1
    46    12    40   1
    47    14    41   1
    48    15    42   1
    49    16    43   1
    50    20    44   1
    51    21    45   1
    52    22    46   1
    53    27    47   1
    54    28    48   1
    55    29    49   1
    56    30    50   1
    57    33    51   1
    58    34    52   1
@<TRIPOS>SUBSTRUCTURE
     1  YKI      1

