@<TRIPOS>MOLECULE
2yki_ligand_004
    52    58
SMALL
GAST_HUCK
****
This file was generated by PARSER (from files_GN.cpp)

@<TRIPOS>ATOM
      1 C1         -1.7034   11.2098   23.6195 C.ar        1 YKI      -0.0069
      2 N1         -1.5293   11.0686   24.9656 N.ar        1 YKI      -0.3145
      3 C2         -0.3070   11.0921   25.5657 C.ar        1 YKI       0.0318
      4 N2          2.1406   11.2821   25.0174 N.pl3       1 YKI      -0.2421
      5 C3         -0.5864   11.3999   22.7793 C.ar        1 YKI      -0.0358
      6 N3          1.9025   11.5111   22.8355 N.2         1 YKI      -0.2951
      7 C4          2.7885   11.4561   23.8481 C.2         1 YKI       0.1441
      8 N4          8.0210   13.6232   25.1642 N.am        1 YKI      -0.2584
      9 C5          0.6819   11.4028   23.3789 C.ar        1 YKI       0.0509
     10 N5         11.7612   13.5087   28.5176 N.ar        1 YKI      -0.2805
     11 C6          0.8304   11.2529   24.7551 C.ar        1 YKI       0.1092
     12 N6         13.3512   14.1310   26.7637 N.pl3       1 YKI      -0.2631
     13 C7          4.1798   11.5049   23.6681 C.ar        1 YKI       0.0361
     14 C8          6.9550   11.5686   23.0762 C.ar        1 YKI      -0.0512
     15 C9          6.1726   10.4627   22.6885 C.ar        1 YKI      -0.0623
     16 C10         4.7945   10.4394   22.9691 C.ar        1 YKI      -0.0499
     17 C11         8.8567   14.5118   25.6807 C.2         1 YKI       0.2116
     18 C12         9.8012   14.1319   26.6071 C.ar        1 YKI       0.0544
     19 O13         8.8646   15.6850   25.3080 O.2         1 YKI      -0.3825
     20 C14         9.4425   13.6357   27.8880 C.ar        1 YKI      -0.0315
     21 C15        10.4465   13.3419   28.8343 C.ar        1 YKI       0.0006
     22 C16         6.9992   13.8900   24.1985 C.3         1 YKI       0.1112
     23 C17         6.3486   12.6364   23.7653 C.ar        1 YKI       0.0062
     24 C18         4.9789   12.6031   24.0820 C.ar        1 YKI       0.0013
     25 C19         5.8333   14.5988   24.7698 C.ar        1 YKI       0.0020
     26 C20         4.6777   13.8031   24.7427 C.ar        1 YKI      -0.0129
     27 C21         3.4852   14.2714   25.3370 C.ar        1 YKI      -0.0610
     28 C22         3.4714   15.5317   25.9625 C.ar        1 YKI      -0.0680
     29 C23         4.6074   16.3565   25.9270 C.ar        1 YKI      -0.0680
     30 C24         5.7874   15.9063   25.3039 C.ar        1 YKI      -0.0553
     31 C25        11.1775   14.2631   26.3234 C.ar        1 YKI       0.0172
     32 C26        12.1300   13.9459   27.2866 C.ar        1 YKI       0.1409
     33 C27        13.2276   14.5492   25.4897 C.2         1 YKI       0.0293
     34 C28        11.8796   14.6529   25.1816 C.2         1 YKI      -0.0523
     35 H1         -2.6426   11.1675   23.2222 H           1 YKI       0.0705
     36 H2         -0.2202   10.9838   26.5780 H           1 YKI       0.0763
     37 H3          2.5508   11.1968   25.8930 H           1 YKI       0.2328
     38 H4         -0.6931   11.5178   21.7701 H           1 YKI       0.0643
     39 H5          8.1710   12.6986   25.4197 H           1 YKI       0.1910
     40 H6         14.1906   13.9641   27.2191 H           1 YKI       0.2313
     41 H7          7.9533   11.5903   22.8463 H           1 YKI       0.0605
     42 H8          6.6044    9.6778   22.1884 H           1 YKI       0.0605
     43 H9          4.2441    9.6326   22.6561 H           1 YKI       0.0619
     44 H10         8.4567   13.5313   28.1565 H           1 YKI       0.0656
     45 H11        10.1999   13.0044   29.7670 H           1 YKI       0.0758
     46 H12         7.3956   14.4162   23.3298 H           1 YKI       0.0919
     47 H13         2.6358   13.7116   25.3443 H           1 YKI       0.0603
     48 H14         2.6223   15.8468   26.4316 H           1 YKI       0.0563
     49 H15         4.5745   17.2814   26.3636 H           1 YKI       0.0597
     50 H16         6.6046   16.5194   25.2503 H           1 YKI       0.0566
     51 H17        13.9986   14.7370   24.8447 H           1 YKI       0.0983
     52 H18        11.4832   14.9308   24.2847 H           1 YKI       0.0310
@<TRIPOS>BOND
     1     1     2  ar
     2     5     1  ar
     3     3     2  ar
     4    11     3  ar
     5     7     4   1
     6     4    11   1
     7     9     5  ar
     8     7     6   2
     9     6     9   1
    10    13     7   1
    11     8    17  am
    12    22     8   1
    13     9    11  ar
    14    21    10  ar
    15    10    32  ar
    16    32    12   1
    17    12    33   1
    18    16    13  ar
    19    13    24  ar
    20    14    15  ar
    21    23    14  ar
    22    15    16  ar
    23    17    18   1
    24    17    19   2
    25    18    20  ar
    26    18    31  ar
    27    20    21  ar
    28    22    23   1
    29    22    25   1
    30    23    24  ar
    31    24    26   1
    32    25    26  ar
    33    25    30  ar
    34    26    27  ar
    35    27    28  ar
    36    28    29  ar
    37    29    30  ar
    38    31    32  ar
    39    31    34   1
    40    33    34   2
    41     1    35   1
    42     3    36   1
    43     4    37   1
    44     5    38   1
    45     8    39   1
    46    12    40   1
    47    14    41   1
    48    15    42   1
    49    16    43   1
    50    20    44   1
    51    21    45   1
    52    22    46   1
    53    27    47   1
    54    28    48   1
    55    29    49   1
    56    30    50   1
    57    33    51   1
    58    34    52   1
@<TRIPOS>SUBSTRUCTURE
     1  YKI      1

