@<TRIPOS>MOLECULE
2yki_ligand_075
    52    58
SMALL
GAST_HUCK
****
This file was generated by PARSER (from files_GN.cpp)

@<TRIPOS>ATOM
      1 C1          1.2148    3.0782   24.4252 C.ar        1 YKI      -0.0069
      2 N1          1.9808    2.6005   25.4421 N.ar        1 YKI      -0.3145
      3 C2          3.0743    3.2525   25.9293 C.ar        1 YKI       0.0318
      4 N2          4.4059    5.3529   25.5864 N.pl3       1 YKI      -0.2421
      5 C3          1.5349    4.3066   23.8142 C.ar        1 YKI      -0.0358
      6 N3          3.2322    6.1412   23.9016 N.2         1 YKI      -0.2951
      7 C4          4.2816    6.3787   24.7187 C.2         1 YKI       0.1441
      8 N4          5.4315   12.0839   24.2020 N.am        1 YKI      -0.2584
      9 C5          2.6664    4.9910   24.2970 C.ar        1 YKI       0.0509
     10 N5          6.4765   16.0159   27.0637 N.ar        1 YKI      -0.2805
     11 C6          3.4214    4.4822   25.3512 C.ar        1 YKI       0.1092
     12 N6          4.0709   16.1549   26.6672 N.pl3       1 YKI      -0.2631
     13 C7          5.1690    7.4721   24.6049 C.ar        1 YKI       0.0361
     14 C8          7.1214    9.4894   24.1199 C.ar        1 YKI      -0.0512
     15 C9          7.5036    8.2497   24.6589 C.ar        1 YKI      -0.0623
     16 C10         6.5428    7.2471   24.8867 C.ar        1 YKI      -0.0499
     17 C11         6.4142   12.9755   24.1489 C.2         1 YKI       0.2116
     18 C12         6.4457   14.0141   25.0755 C.ar        1 YKI       0.0544
     19 O13         7.3186   12.8625   23.3288 O.2         1 YKI      -0.3825
     20 C14         7.6542   14.4146   25.7047 C.ar        1 YKI      -0.0315
     21 C15         7.6413   15.4118   26.7047 C.ar        1 YKI       0.0006
     22 C16         5.1978   10.9762   23.3264 C.3         1 YKI       0.1112
     23 C17         5.7615    9.7334   23.8710 C.ar        1 YKI       0.0062
     24 C18         4.7837    8.7596   24.1488 C.ar        1 YKI       0.0013
     25 C19         3.7645   10.6339   23.3453 C.ar        1 YKI       0.0020
     26 C20         3.5367    9.3618   23.8951 C.ar        1 YKI      -0.0129
     27 C21         2.2094    8.9750   24.2005 C.ar        1 YKI      -0.0610
     28 C22         1.1342    9.8170   23.8632 C.ar        1 YKI      -0.0680
     29 C23         1.3732   11.0612   23.2489 C.ar        1 YKI      -0.0680
     30 C24         2.6940   11.4741   22.9905 C.ar        1 YKI      -0.0553
     31 C25         5.2673   14.6963   25.4718 C.ar        1 YKI       0.0172
     32 C26         5.3111   15.6790   26.4658 C.ar        1 YKI       0.1409
     33 C27         3.2223   15.5264   25.8328 C.2         1 YKI       0.0293
     34 C28         3.9402   14.6264   25.0604 C.2         1 YKI      -0.0523
     35 H1          0.4141    2.5378   24.1006 H           1 YKI       0.0705
     36 H2          3.6242    2.8515   26.6817 H           1 YKI       0.0763
     37 H3          5.0950    5.2590   26.2617 H           1 YKI       0.2328
     38 H4          0.9685    4.6824   23.0496 H           1 YKI       0.0643
     39 H5          4.7920   12.1954   24.9234 H           1 YKI       0.1910
     40 H6          3.8298   16.8424   27.3061 H           1 YKI       0.2313
     41 H7          7.8245   10.2036   23.9285 H           1 YKI       0.0605
     42 H8          8.4898    8.0760   24.8648 H           1 YKI       0.0605
     43 H9          6.8569    6.3350   25.2333 H           1 YKI       0.0619
     44 H10         8.5434   13.9667   25.4724 H           1 YKI       0.0656
     45 H11         8.5117   15.6775   27.1677 H           1 YKI       0.0758
     46 H12         5.5403   11.1555   22.3036 H           1 YKI       0.0919
     47 H13         2.0089    8.1207   24.7199 H           1 YKI       0.0603
     48 H14         0.1778    9.5349   24.0880 H           1 YKI       0.0563
     49 H15         0.5922   11.6689   23.0164 H           1 YKI       0.0597
     50 H16         2.8626   12.3865   22.5666 H           1 YKI       0.0566
     51 H17         2.2173   15.6852   25.7590 H           1 YKI       0.0983
     52 H18         3.5537   14.0361   24.3213 H           1 YKI       0.0310
@<TRIPOS>BOND
     1     1     2  ar
     2     5     1  ar
     3     3     2  ar
     4    11     3  ar
     5     7     4   1
     6     4    11   1
     7     9     5  ar
     8     7     6   2
     9     6     9   1
    10    13     7   1
    11     8    17  am
    12    22     8   1
    13     9    11  ar
    14    21    10  ar
    15    10    32  ar
    16    32    12   1
    17    12    33   1
    18    16    13  ar
    19    13    24  ar
    20    14    15  ar
    21    23    14  ar
    22    15    16  ar
    23    17    18   1
    24    17    19   2
    25    18    20  ar
    26    18    31  ar
    27    20    21  ar
    28    22    23   1
    29    22    25   1
    30    23    24  ar
    31    24    26   1
    32    25    26  ar
    33    25    30  ar
    34    26    27  ar
    35    27    28  ar
    36    28    29  ar
    37    29    30  ar
    38    31    32  ar
    39    31    34   1
    40    33    34   2
    41     1    35   1
    42     3    36   1
    43     4    37   1
    44     5    38   1
    45     8    39   1
    46    12    40   1
    47    14    41   1
    48    15    42   1
    49    16    43   1
    50    20    44   1
    51    21    45   1
    52    22    46   1
    53    27    47   1
    54    28    48   1
    55    29    49   1
    56    30    50   1
    57    33    51   1
    58    34    52   1
@<TRIPOS>SUBSTRUCTURE
     1  YKI      1

