@<TRIPOS>MOLECULE
2yki_ligand_026
    52    58
SMALL
GAST_HUCK
****
This file was generated by PARSER (from files_GN.cpp)

@<TRIPOS>ATOM
      1 C1          0.2877   13.5967   21.6098 C.ar        1 YKI      -0.0069
      2 N1         -0.8902   12.9944   21.2753 N.ar        1 YKI      -0.3145
      3 C2         -1.3759   11.8994   21.9245 C.ar        1 YKI       0.0318
      4 N2         -0.8254   10.3461   23.8173 N.pl3       1 YKI      -0.2421
      5 C3          1.0632   13.0948   22.6757 C.ar        1 YKI      -0.0358
      6 N3          1.0886   11.2909   24.3979 N.2         1 YKI      -0.2951
      7 C4          0.2173   10.2986   24.6650 C.2         1 YKI       0.1441
      8 N4          2.8916    5.7434   27.1172 N.am        1 YKI      -0.2584
      9 C5          0.5807   11.9658   23.3551 C.ar        1 YKI       0.0509
     10 N5          6.2736    4.3952   30.4827 N.ar        1 YKI      -0.2805
     11 C6         -0.6252   11.3728   22.9881 C.ar        1 YKI       0.1092
     12 N6          5.0301    5.7942   32.0625 N.pl3       1 YKI      -0.2631
     13 C7          0.3380    9.3657   25.6999 C.ar        1 YKI       0.0361
     14 C8          0.3588    7.4449   27.7877 C.ar        1 YKI      -0.0512
     15 C9         -0.3596    8.6443   27.9385 C.ar        1 YKI      -0.0623
     16 C10        -0.3806    9.5925   26.8978 C.ar        1 YKI      -0.0499
     17 C11         2.9092    4.8121   28.0547 C.2         1 YKI       0.2116
     18 C12         4.0229    4.6886   28.8422 C.ar        1 YKI       0.0544
     19 O13         1.9497    4.0920   28.2941 O.2         1 YKI      -0.3825
     20 C14         5.1448    3.9478   28.4020 C.ar        1 YKI      -0.0315
     21 C15         6.2617    3.8054   29.2546 C.ar        1 YKI       0.0006
     22 C16         1.8015    5.9903   26.2303 C.3         1 YKI       0.1112
     23 C17         1.0649    7.2134   26.5909 C.ar        1 YKI       0.0062
     24 C18         1.0767    8.1644   25.5586 C.ar        1 YKI       0.0013
     25 C19         2.2877    6.3593   24.8940 C.ar        1 YKI       0.0020
     26 C20         1.8524    7.6374   24.5152 C.ar        1 YKI      -0.0129
     27 C21         2.2322    8.1621   23.2611 C.ar        1 YKI      -0.0610
     28 C22         3.0626    7.4018   22.4125 C.ar        1 YKI      -0.0680
     29 C23         3.4968    6.1191   22.8017 C.ar        1 YKI      -0.0680
     30 C24         3.0991    5.5841   24.0418 C.ar        1 YKI      -0.0553
     31 C25         4.0807    5.2906   30.1154 C.ar        1 YKI       0.0172
     32 C26         5.2160    5.1292   30.9110 C.ar        1 YKI       0.1409
     33 C27         3.8206    6.3833   32.0410 C.2         1 YKI       0.0293
     34 C28         3.2022    6.0971   30.8289 C.2         1 YKI      -0.0523
     35 H1          0.5979   14.4209   21.0926 H           1 YKI       0.0705
     36 H2         -2.2656   11.4801   21.6485 H           1 YKI       0.0763
     37 H3         -1.5878    9.7466   23.8163 H           1 YKI       0.2328
     38 H4          1.9380   13.5410   22.9553 H           1 YKI       0.0643
     39 H5          3.6635    6.3294   27.0506 H           1 YKI       0.1910
     40 H6          5.6667    5.8431   32.7926 H           1 YKI       0.2313
     41 H7          0.3510    6.7467   28.5347 H           1 YKI       0.0605
     42 H8         -0.8863    8.8207   28.7977 H           1 YKI       0.0605
     43 H9         -0.9357   10.4444   27.0189 H           1 YKI       0.0619
     44 H10         5.1529    3.5017   27.4793 H           1 YKI       0.0656
     45 H11         7.0679    3.2541   28.9544 H           1 YKI       0.0758
     46 H12         1.1127    5.1446   26.1493 H           1 YKI       0.0919
     47 H13         1.9261    9.0850   22.9605 H           1 YKI       0.0603
     48 H14         3.3536    7.7817   21.5100 H           1 YKI       0.0563
     49 H15         4.1028    5.5769   22.1817 H           1 YKI       0.0597
     50 H16         3.4063    4.6496   24.3219 H           1 YKI       0.0566
     51 H17         3.4212    6.9487   32.7912 H           1 YKI       0.0983
     52 H18         2.2827    6.4215   30.5244 H           1 YKI       0.0310
@<TRIPOS>BOND
     1     1     2  ar
     2     5     1  ar
     3     3     2  ar
     4    11     3  ar
     5     7     4   1
     6     4    11   1
     7     9     5  ar
     8     7     6   2
     9     6     9   1
    10    13     7   1
    11     8    17  am
    12    22     8   1
    13     9    11  ar
    14    21    10  ar
    15    10    32  ar
    16    32    12   1
    17    12    33   1
    18    16    13  ar
    19    13    24  ar
    20    14    15  ar
    21    23    14  ar
    22    15    16  ar
    23    17    18   1
    24    17    19   2
    25    18    20  ar
    26    18    31  ar
    27    20    21  ar
    28    22    23   1
    29    22    25   1
    30    23    24  ar
    31    24    26   1
    32    25    26  ar
    33    25    30  ar
    34    26    27  ar
    35    27    28  ar
    36    28    29  ar
    37    29    30  ar
    38    31    32  ar
    39    31    34   1
    40    33    34   2
    41     1    35   1
    42     3    36   1
    43     4    37   1
    44     5    38   1
    45     8    39   1
    46    12    40   1
    47    14    41   1
    48    15    42   1
    49    16    43   1
    50    20    44   1
    51    21    45   1
    52    22    46   1
    53    27    47   1
    54    28    48   1
    55    29    49   1
    56    30    50   1
    57    33    51   1
    58    34    52   1
@<TRIPOS>SUBSTRUCTURE
     1  YKI      1

