@<TRIPOS>MOLECULE
2yki_ligand_027
    52    58
SMALL
GAST_HUCK
****
This file was generated by PARSER (from files_GN.cpp)

@<TRIPOS>ATOM
      1 C1         17.9388   13.8048   31.5598 C.ar        1 YKI      -0.0069
      2 N1         17.2484   12.7454   32.0744 N.ar        1 YKI      -0.3145
      3 C2         16.0094   12.3841   31.6441 C.ar        1 YKI       0.0318
      4 N2         14.2210   13.0723   30.0195 N.pl3       1 YKI      -0.2421
      5 C3         17.3713   14.5841   30.5271 C.ar        1 YKI      -0.0358
      6 N3         15.3064   14.7926   29.1497 N.2         1 YKI      -0.2951
      7 C4         14.1615   14.0769   29.1246 C.2         1 YKI       0.1441
      8 N4         10.8457   13.3837   24.3670 N.am        1 YKI      -0.2584
      9 C5         16.0926   14.2239   30.0740 C.ar        1 YKI       0.0509
     10 N5          6.7967   10.5530   23.4152 N.ar        1 YKI      -0.2805
     11 C6         15.4118   13.1411   30.6231 C.ar        1 YKI       0.1092
     12 N6          5.4463   12.5635   23.7182 N.pl3       1 YKI      -0.2631
     13 C7         13.0582   14.4368   28.3443 C.ar        1 YKI       0.0361
     14 C8         10.9449   15.5158   26.7808 C.ar        1 YKI      -0.0512
     15 C9         10.9807   15.7348   28.1696 C.ar        1 YKI      -0.0623
     16 C10        12.0254   15.1944   28.9475 C.ar        1 YKI      -0.0499
     17 C11         9.8868   12.8088   25.0880 C.2         1 YKI       0.2116
     18 C12         8.8910   12.0893   24.4722 C.ar        1 YKI       0.0544
     19 O13         9.8343   12.8459   26.3089 O.2         1 YKI      -0.3825
     20 C14         9.1010   10.7464   24.0882 C.ar        1 YKI      -0.0315
     21 C15         8.0298    9.9918   23.5620 C.ar        1 YKI       0.0006
     22 C16        11.9433   14.2152   24.7980 C.3         1 YKI       0.1112
     23 C17        11.9286   14.6982   26.1950 C.ar        1 YKI       0.0062
     24 C18        12.9829   14.1690   26.9546 C.ar        1 YKI       0.0013
     25 C19        13.1994   13.4441   24.8153 C.ar        1 YKI       0.0020
     26 C20        13.7759   13.4039   26.0921 C.ar        1 YKI      -0.0129
     27 C21        14.9362   12.6366   26.3157 C.ar        1 YKI      -0.0610
     28 C22        15.5287   11.9393   25.2449 C.ar        1 YKI      -0.0680
     29 C23        14.9688   12.0127   23.9550 C.ar        1 YKI      -0.0680
     30 C24        13.7971   12.7639   23.7340 C.ar        1 YKI      -0.0553
     31 C25         7.5953   12.6316   24.3078 C.ar        1 YKI       0.0172
     32 C26         6.5768   11.8414   23.7736 C.ar        1 YKI       0.1409
     33 C27         5.6904   13.7919   24.2020 C.2         1 YKI       0.0293
     34 C28         7.0258   13.8720   24.5794 C.2         1 YKI      -0.0523
     35 H1         18.8604   14.0362   31.9291 H           1 YKI       0.0705
     36 H2         15.5228   11.5891   32.0634 H           1 YKI       0.0763
     37 H3         13.5173   12.4320   30.2146 H           1 YKI       0.2328
     38 H4         17.8644   15.3890   30.1375 H           1 YKI       0.0643
     39 H5         10.8095   13.2203   23.4106 H           1 YKI       0.1910
     40 H6          4.5907   12.2437   23.3906 H           1 YKI       0.2313
     41 H7         10.1760   15.8906   26.2209 H           1 YKI       0.0605
     42 H8         10.2537   16.2943   28.6172 H           1 YKI       0.0605
     43 H9         12.0430   15.3969   29.9484 H           1 YKI       0.0619
     44 H10        10.0152   10.2992   24.2067 H           1 YKI       0.0656
     45 H11         8.1685    9.0167   23.2984 H           1 YKI       0.0758
     46 H12        12.0406   15.0660   24.1222 H           1 YKI       0.0919
     47 H13        15.3414   12.5559   27.2494 H           1 YKI       0.0603
     48 H14        16.3575   11.3616   25.4048 H           1 YKI       0.0563
     49 H15        15.4002   11.5011   23.1800 H           1 YKI       0.0597
     50 H16        13.3709   12.7917   22.8085 H           1 YKI       0.0566
     51 H17         4.9996   14.5428   24.2811 H           1 YKI       0.0983
     52 H18         7.4945   14.6877   24.9819 H           1 YKI       0.0310
@<TRIPOS>BOND
     1     1     2  ar
     2     5     1  ar
     3     3     2  ar
     4    11     3  ar
     5     7     4   1
     6     4    11   1
     7     9     5  ar
     8     7     6   2
     9     6     9   1
    10    13     7   1
    11     8    17  am
    12    22     8   1
    13     9    11  ar
    14    21    10  ar
    15    10    32  ar
    16    32    12   1
    17    12    33   1
    18    16    13  ar
    19    13    24  ar
    20    14    15  ar
    21    23    14  ar
    22    15    16  ar
    23    17    18   1
    24    17    19   2
    25    18    20  ar
    26    18    31  ar
    27    20    21  ar
    28    22    23   1
    29    22    25   1
    30    23    24  ar
    31    24    26   1
    32    25    26  ar
    33    25    30  ar
    34    26    27  ar
    35    27    28  ar
    36    28    29  ar
    37    29    30  ar
    38    31    32  ar
    39    31    34   1
    40    33    34   2
    41     1    35   1
    42     3    36   1
    43     4    37   1
    44     5    38   1
    45     8    39   1
    46    12    40   1
    47    14    41   1
    48    15    42   1
    49    16    43   1
    50    20    44   1
    51    21    45   1
    52    22    46   1
    53    27    47   1
    54    28    48   1
    55    29    49   1
    56    30    50   1
    57    33    51   1
    58    34    52   1
@<TRIPOS>SUBSTRUCTURE
     1  YKI      1

