@<TRIPOS>MOLECULE
2yki_ligand_034
    52    58
SMALL
GAST_HUCK
****
This file was generated by PARSER (from files_GN.cpp)

@<TRIPOS>ATOM
      1 C1          7.6337   10.5809   21.0031 C.ar        1 YKI      -0.0069
      2 N1          8.7366   10.3799   21.7819 N.ar        1 YKI      -0.3145
      3 C2          8.7045    9.6495   22.9361 C.ar        1 YKI       0.0318
      4 N2          7.1174    8.3280   24.3788 N.pl3       1 YKI      -0.2421
      5 C3          6.3942   10.0286   21.3760 C.ar        1 YKI      -0.0358
      6 N3          5.3093    8.6733   23.1494 N.2         1 YKI      -0.2951
      7 C4          5.7976    8.0920   24.2649 C.2         1 YKI       0.1441
      8 N4          4.7293    3.2709   27.3378 N.am        1 YKI      -0.2584
      9 C5          6.3463    9.2811   22.5605 C.ar        1 YKI       0.0509
     10 N5          5.4202    1.3175   31.8695 N.ar        1 YKI      -0.2805
     11 C6          7.4852    9.0820   23.3318 C.ar        1 YKI       0.1092
     12 N6          5.0576    3.5415   32.8220 N.pl3       1 YKI      -0.2631
     13 C7          4.9993    7.3785   25.1627 C.ar        1 YKI       0.0361
     14 C8          3.2918    6.0226   26.9721 C.ar        1 YKI      -0.0512
     15 C9          3.2433    7.4255   26.8751 C.ar        1 YKI      -0.0623
     16 C10         4.0825    8.0970   25.9633 C.ar        1 YKI      -0.0499
     17 C11         3.9280    3.0011   28.3501 C.2         1 YKI       0.2116
     18 C12         4.4409    2.4467   29.4965 C.ar        1 YKI       0.0544
     19 O13         2.7330    3.2902   28.3478 O.2         1 YKI      -0.3825
     20 C14         4.8504    1.0932   29.5388 C.ar        1 YKI      -0.0315
     21 C15         5.3354    0.5511   30.7483 C.ar        1 YKI       0.0006
     22 C16         4.3189    3.8386   26.0875 C.3         1 YKI       0.1112
     23 C17         4.1827    5.3033   26.1551 C.ar        1 YKI       0.0062
     24 C18         5.0386    5.9638   25.2603 C.ar        1 YKI       0.0013
     25 C19         5.3818    3.7276   25.0760 C.ar        1 YKI       0.0020
     26 C20         5.7836    4.9816   24.5944 C.ar        1 YKI      -0.0129
     27 C21         6.7836    5.0674   23.6001 C.ar        1 YKI      -0.0610
     28 C22         7.3966    3.8933   23.1262 C.ar        1 YKI      -0.0680
     29 C23         6.9934    2.6341   23.6177 C.ar        1 YKI      -0.0680
     30 C24         5.9761    2.5450   24.5919 C.ar        1 YKI      -0.0553
     31 C25         4.5499    3.2075   30.6810 C.ar        1 YKI       0.0172
     32 C26         5.0422    2.6202   31.8476 C.ar        1 YKI       0.1409
     33 C27         4.5978    4.7041   32.3312 C.2         1 YKI       0.0293
     34 C28         4.2637    4.5300   30.9930 C.2         1 YKI      -0.0523
     35 H1          7.7092   11.1284   20.1445 H           1 YKI       0.0705
     36 H2          9.5510    9.5268   23.4957 H           1 YKI       0.0763
     37 H3          7.7005    8.0195   25.0888 H           1 YKI       0.2328
     38 H4          5.5549   10.1635   20.8119 H           1 YKI       0.0643
     39 H5          5.6784    3.1032   27.4628 H           1 YKI       0.1910
     40 H6          5.3523    3.3881   33.7335 H           1 YKI       0.2313
     41 H7          2.6828    5.5359   27.6310 H           1 YKI       0.0605
     42 H8          2.5999    7.9565   27.4655 H           1 YKI       0.0605
     43 H9          4.0209    9.1186   25.9045 H           1 YKI       0.0619
     44 H10         4.7843    0.4995   28.7068 H           1 YKI       0.0656
     45 H11         5.6212   -0.4269   30.7937 H           1 YKI       0.0758
     46 H12         3.3970    3.3924   25.7021 H           1 YKI       0.0919
     47 H13         7.0820    5.9664   23.2262 H           1 YKI       0.0603
     48 H14         8.1348    3.9545   22.4241 H           1 YKI       0.0563
     49 H15         7.4352    1.7831   23.2662 H           1 YKI       0.0597
     50 H16         5.6783    1.6346   24.9451 H           1 YKI       0.0566
     51 H17         4.4986    5.5722   32.8557 H           1 YKI       0.0983
     52 H18         3.8903    5.2411   30.3580 H           1 YKI       0.0310
@<TRIPOS>BOND
     1     1     2  ar
     2     5     1  ar
     3     3     2  ar
     4    11     3  ar
     5     7     4   1
     6     4    11   1
     7     9     5  ar
     8     7     6   2
     9     6     9   1
    10    13     7   1
    11     8    17  am
    12    22     8   1
    13     9    11  ar
    14    21    10  ar
    15    10    32  ar
    16    32    12   1
    17    12    33   1
    18    16    13  ar
    19    13    24  ar
    20    14    15  ar
    21    23    14  ar
    22    15    16  ar
    23    17    18   1
    24    17    19   2
    25    18    20  ar
    26    18    31  ar
    27    20    21  ar
    28    22    23   1
    29    22    25   1
    30    23    24  ar
    31    24    26   1
    32    25    26  ar
    33    25    30  ar
    34    26    27  ar
    35    27    28  ar
    36    28    29  ar
    37    29    30  ar
    38    31    32  ar
    39    31    34   1
    40    33    34   2
    41     1    35   1
    42     3    36   1
    43     4    37   1
    44     5    38   1
    45     8    39   1
    46    12    40   1
    47    14    41   1
    48    15    42   1
    49    16    43   1
    50    20    44   1
    51    21    45   1
    52    22    46   1
    53    27    47   1
    54    28    48   1
    55    29    49   1
    56    30    50   1
    57    33    51   1
    58    34    52   1
@<TRIPOS>SUBSTRUCTURE
     1  YKI      1

