@<TRIPOS>MOLECULE
2yki_ligand_085
    52    58
SMALL
GAST_HUCK
****
This file was generated by PARSER (from files_GN.cpp)

@<TRIPOS>ATOM
      1 C1         11.2227   -2.6451   30.4769 C.ar        1 YKI      -0.0069
      2 N1         12.3873   -1.9482   30.3391 N.ar        1 YKI      -0.3145
      3 C2         12.4447   -0.5882   30.3361 C.ar        1 YKI       0.0318
      4 N2         10.9732    1.4307   30.5202 N.pl3       1 YKI      -0.2421
      5 C3          9.9981   -1.9579   30.6217 C.ar        1 YKI      -0.0358
      6 N3          9.0535    0.3563   30.7351 N.2         1 YKI      -0.2951
      7 C4          9.6429    1.5672   30.6656 C.2         1 YKI       0.1441
      8 N4          5.5464    5.2477   28.8116 N.am        1 YKI      -0.2584
      9 C5         10.0351   -0.5531   30.6202 C.ar        1 YKI       0.0509
     10 N5          0.6790    6.1524   29.0186 N.ar        1 YKI      -0.2805
     11 C6         11.2447    0.1250   30.4813 C.ar        1 YKI       0.1092
     12 N6          1.3249    8.1604   30.2605 N.pl3       1 YKI      -0.2631
     13 C7          8.9866    2.8025   30.7503 C.ar        1 YKI       0.0361
     14 C8          7.7658    5.3546   31.0041 C.ar        1 YKI      -0.0512
     15 C9          8.5153    4.8224   32.0671 C.ar        1 YKI      -0.0623
     16 C10         9.1306    3.5618   31.9373 C.ar        1 YKI      -0.0499
     17 C11         4.7293    5.9252   28.0190 C.2         1 YKI       0.2116
     18 C12         3.3980    6.0034   28.3445 C.ar        1 YKI       0.0544
     19 O13         5.1083    6.5051   27.0094 O.2         1 YKI      -0.3825
     20 C14         2.4784    5.0403   27.8653 C.ar        1 YKI      -0.0315
     21 C15         1.1135    5.1392   28.2178 C.ar        1 YKI       0.0006
     22 C16         6.9465    5.0500   28.5893 C.3         1 YKI       0.1112
     23 C17         7.6362    4.6118   29.8152 C.ar        1 YKI       0.0062
     24 C18         8.2307    3.3457   29.6796 C.ar        1 YKI       0.0013
     25 C19         7.2169    3.8921   27.7201 C.ar        1 YKI       0.0020
     26 C20         7.9633    2.9015   28.3772 C.ar        1 YKI      -0.0129
     27 C21         8.3318    1.7272   27.6831 C.ar        1 YKI      -0.0610
     28 C22         7.9407    1.5594   26.3396 C.ar        1 YKI      -0.0680
     29 C23         7.1916    2.5598   25.6887 C.ar        1 YKI      -0.0680
     30 C24         6.8314    3.7356   26.3741 C.ar        1 YKI      -0.0553
     31 C25         2.9035    7.0419   29.1607 C.ar        1 YKI       0.0172
     32 C26         1.5458    7.0868   29.4849 C.ar        1 YKI       0.1409
     33 C27         2.4821    8.8182   30.4460 C.2         1 YKI       0.0293
     34 C28         3.4949    8.1429   29.7707 C.2         1 YKI      -0.0523
     35 H1         11.2436   -3.6675   30.4789 H           1 YKI       0.0705
     36 H2         13.3356   -0.1033   30.2268 H           1 YKI       0.0763
     37 H3         11.6173    2.1526   30.4496 H           1 YKI       0.2328
     38 H4          9.1156   -2.4636   30.7239 H           1 YKI       0.0643
     39 H5          5.1632    4.8550   29.6132 H           1 YKI       0.1910
     40 H6          0.4640    8.4350   30.6127 H           1 YKI       0.2313
     41 H7          7.3336    6.2775   31.0916 H           1 YKI       0.0605
     42 H8          8.6308    5.3579   32.9291 H           1 YKI       0.0605
     43 H9          9.6851    3.2024   32.7208 H           1 YKI       0.0619
     44 H10         2.7872    4.2752   27.2599 H           1 YKI       0.0656
     45 H11         0.4427    4.4510   27.8700 H           1 YKI       0.0758
     46 H12         7.4335    5.9515   28.2064 H           1 YKI       0.0919
     47 H13         8.8814    0.9964   28.1302 H           1 YKI       0.0603
     48 H14         8.2022    0.7090   25.8343 H           1 YKI       0.0563
     49 H15         6.9148    2.4338   24.7130 H           1 YKI       0.0597
     50 H16         6.2981    4.4622   25.8943 H           1 YKI       0.0566
     51 H17         2.5953    9.6811   30.9809 H           1 YKI       0.0983
     52 H18         4.4786    8.4152   29.7244 H           1 YKI       0.0310
@<TRIPOS>BOND
     1     1     2  ar
     2     5     1  ar
     3     3     2  ar
     4    11     3  ar
     5     7     4   1
     6     4    11   1
     7     9     5  ar
     8     7     6   2
     9     6     9   1
    10    13     7   1
    11     8    17  am
    12    22     8   1
    13     9    11  ar
    14    21    10  ar
    15    10    32  ar
    16    32    12   1
    17    12    33   1
    18    16    13  ar
    19    13    24  ar
    20    14    15  ar
    21    23    14  ar
    22    15    16  ar
    23    17    18   1
    24    17    19   2
    25    18    20  ar
    26    18    31  ar
    27    20    21  ar
    28    22    23   1
    29    22    25   1
    30    23    24  ar
    31    24    26   1
    32    25    26  ar
    33    25    30  ar
    34    26    27  ar
    35    27    28  ar
    36    28    29  ar
    37    29    30  ar
    38    31    32  ar
    39    31    34   1
    40    33    34   2
    41     1    35   1
    42     3    36   1
    43     4    37   1
    44     5    38   1
    45     8    39   1
    46    12    40   1
    47    14    41   1
    48    15    42   1
    49    16    43   1
    50    20    44   1
    51    21    45   1
    52    22    46   1
    53    27    47   1
    54    28    48   1
    55    29    49   1
    56    30    50   1
    57    33    51   1
    58    34    52   1
@<TRIPOS>SUBSTRUCTURE
     1  YKI      1

