@<TRIPOS>MOLECULE
2yki_ligand_066
    52    58
SMALL
GAST_HUCK
****
This file was generated by PARSER (from files_GN.cpp)

@<TRIPOS>ATOM
      1 C1         12.4743    2.3015   28.4255 C.ar        1 YKI      -0.0069
      2 N1         12.3796    3.6058   28.0376 N.ar        1 YKI      -0.3145
      3 C2         11.7069    4.5467   28.7562 C.ar        1 YKI       0.0318
      4 N2         10.3781    4.8257   30.8640 N.pl3       1 YKI      -0.2421
      5 C3         11.8619    1.8705   29.6212 C.ar        1 YKI      -0.0358
      6 N3         10.4934    2.7243   31.5310 N.2         1 YKI      -0.2951
      7 C4          9.9924    3.9485   31.8099 C.2         1 YKI       0.1441
      8 N4          4.9114    4.6820   34.4837 N.am        1 YKI      -0.2584
      9 C5         11.1621    2.8297   30.3734 C.ar        1 YKI       0.0509
     10 N5          1.4101    1.8173   36.6442 N.ar        1 YKI      -0.2805
     11 C6         11.0864    4.1542   29.9517 C.ar        1 YKI       0.1092
     12 N6          0.2242    2.8589   34.7834 N.pl3       1 YKI      -0.2631
     13 C7          9.2696    4.2537   32.9791 C.ar        1 YKI       0.0361
     14 C8          7.9502    4.8012   35.4323 C.ar        1 YKI      -0.0512
     15 C9          9.2446    4.2551   35.4339 C.ar        1 YKI      -0.0623
     16 C10         9.8926    3.9719   34.2193 C.ar        1 YKI      -0.0499
     17 C11         4.4961    4.5209   35.7344 C.2         1 YKI       0.2116
     18 C12         3.4747    3.6279   36.0221 C.ar        1 YKI       0.0544
     19 O13         4.9987    5.1451   36.6603 O.2         1 YKI      -0.3825
     20 C14         3.5899    2.7204   37.1058 C.ar        1 YKI      -0.0315
     21 C15         2.5469    1.8131   37.3901 C.ar        1 YKI       0.0006
     22 C16         5.9328    5.5769   34.0237 C.3         1 YKI       0.1112
     23 C17         7.3035    5.0501   34.2060 C.ar        1 YKI       0.0062
     24 C18         7.9575    4.8025   32.9850 C.ar        1 YKI       0.0013
     25 C19         5.8950    5.6615   32.5547 C.ar        1 YKI       0.0020
     26 C20         7.0680    5.1688   31.9615 C.ar        1 YKI      -0.0129
     27 C21         7.1548    5.0965   30.5526 C.ar        1 YKI      -0.0610
     28 C22         6.0899    5.5653   29.7578 C.ar        1 YKI      -0.0680
     29 C23         4.9306    6.0875   30.3626 C.ar        1 YKI      -0.0680
     30 C24         4.8247    6.1317   31.7661 C.ar        1 YKI      -0.0553
     31 C25         2.2740    3.5891   35.2743 C.ar        1 YKI       0.0172
     32 C26         1.2653    2.6830   35.6109 C.ar        1 YKI       0.1409
     33 C27         0.5073    3.8514   33.9261 C.2         1 YKI       0.0293
     34 C28         1.7824    4.3329   34.2037 C.2         1 YKI      -0.0523
     35 H1         12.9957    1.6421   27.8478 H           1 YKI       0.0705
     36 H2         11.6625    5.5152   28.4379 H           1 YKI       0.0763
     37 H3         10.1758    5.7748   30.8369 H           1 YKI       0.2328
     38 H4         11.9250    0.8985   29.9292 H           1 YKI       0.0643
     39 H5          4.4590    4.1568   33.8040 H           1 YKI       0.1910
     40 H6         -0.6103    2.3694   34.8092 H           1 YKI       0.2313
     41 H7          7.4925    5.0082   36.3216 H           1 YKI       0.0605
     42 H8          9.7161    4.0632   36.3220 H           1 YKI       0.0605
     43 H9         10.8354    3.5766   34.2538 H           1 YKI       0.0619
     44 H10         4.4345    2.7022   37.6830 H           1 YKI       0.0656
     45 H11         2.6374    1.1516   38.1640 H           1 YKI       0.0758
     46 H12         5.8161    6.5678   34.4690 H           1 YKI       0.0919
     47 H13         7.9640    4.6893   30.0893 H           1 YKI       0.0603
     48 H14         6.1532    5.5168   28.7373 H           1 YKI       0.0563
     49 H15         4.1590    6.4229   29.7792 H           1 YKI       0.0597
     50 H16         3.9763    6.4962   32.2028 H           1 YKI       0.0566
     51 H17        -0.1199    4.2032   33.2037 H           1 YKI       0.0983
     52 H18         2.2477    5.1042   33.7208 H           1 YKI       0.0310
@<TRIPOS>BOND
     1     1     2  ar
     2     5     1  ar
     3     3     2  ar
     4    11     3  ar
     5     7     4   1
     6     4    11   1
     7     9     5  ar
     8     7     6   2
     9     6     9   1
    10    13     7   1
    11     8    17  am
    12    22     8   1
    13     9    11  ar
    14    21    10  ar
    15    10    32  ar
    16    32    12   1
    17    12    33   1
    18    16    13  ar
    19    13    24  ar
    20    14    15  ar
    21    23    14  ar
    22    15    16  ar
    23    17    18   1
    24    17    19   2
    25    18    20  ar
    26    18    31  ar
    27    20    21  ar
    28    22    23   1
    29    22    25   1
    30    23    24  ar
    31    24    26   1
    32    25    26  ar
    33    25    30  ar
    34    26    27  ar
    35    27    28  ar
    36    28    29  ar
    37    29    30  ar
    38    31    32  ar
    39    31    34   1
    40    33    34   2
    41     1    35   1
    42     3    36   1
    43     4    37   1
    44     5    38   1
    45     8    39   1
    46    12    40   1
    47    14    41   1
    48    15    42   1
    49    16    43   1
    50    20    44   1
    51    21    45   1
    52    22    46   1
    53    27    47   1
    54    28    48   1
    55    29    49   1
    56    30    50   1
    57    33    51   1
    58    34    52   1
@<TRIPOS>SUBSTRUCTURE
     1  YKI      1

