@<TRIPOS>MOLECULE
2yki_ligand_088
    52    58
SMALL
GAST_HUCK
****
This file was generated by PARSER (from files_GN.cpp)

@<TRIPOS>ATOM
      1 C1          6.6808    2.3851   20.3920 C.ar        1 YKI      -0.0069
      2 N1          5.4828    2.7492   19.8565 N.ar        1 YKI      -0.3145
      3 C2          4.5642    3.4991   20.5255 C.ar        1 YKI       0.0318
      4 N2          4.1905    4.6138   22.7389 N.pl3       1 YKI      -0.2421
      5 C3          7.0182    2.7740   21.7047 C.ar        1 YKI      -0.0358
      6 N3          6.1046    4.0114   23.6713 N.2         1 YKI      -0.2951
      7 C4          4.9434    4.6753   23.8507 C.2         1 YKI       0.1441
      8 N4          2.4455    9.1682   26.5482 N.am        1 YKI      -0.2584
      9 C5          6.0804    3.5409   22.4156 C.ar        1 YKI       0.0509
     10 N5         -2.2385   10.9050   26.7141 N.ar        1 YKI      -0.2805
     11 C6          4.8691    3.9094   21.8324 C.ar        1 YKI       0.1092
     12 N6         -2.4095   11.3030   24.3222 N.pl3       1 YKI      -0.2631
     13 C7          4.5328    5.2683   25.0508 C.ar        1 YKI       0.0361
     14 C8          3.5366    6.3555   27.4774 C.ar        1 YKI      -0.0512
     15 C9          3.6753    4.9626   27.3310 C.ar        1 YKI      -0.0623
     16 C10         4.1673    4.4238   26.1265 C.ar        1 YKI      -0.0499
     17 C11         1.3766    8.9601   25.7822 C.2         1 YKI       0.2116
     18 C12         0.1768    9.5867   26.0825 C.ar        1 YKI       0.0544
     19 O13         1.4544    8.2525   24.7877 O.2         1 YKI      -0.3825
     20 C14        -0.2741    9.7131   27.4235 C.ar        1 YKI      -0.0315
     21 C15        -1.4853   10.3749   27.7124 C.ar        1 YKI       0.0006
     22 C16         3.7820    8.6679   26.3664 C.3         1 YKI       0.1112
     23 C17         3.8871    7.1982   26.4068 C.ar        1 YKI       0.0062
     24 C18         4.4012    6.6723   25.2106 C.ar        1 YKI       0.0013
     25 C19         4.3677    8.9388   25.0388 C.ar        1 YKI       0.0020
     26 C20         4.7095    7.7525   24.3727 C.ar        1 YKI      -0.0129
     27 C21         5.2820    7.8111   23.0837 C.ar        1 YKI      -0.0610
     28 C22         5.4823    9.0606   22.4648 C.ar        1 YKI      -0.0680
     29 C23         5.1362   10.2479   23.1399 C.ar        1 YKI      -0.0680
     30 C24         4.5836   10.1928   24.4332 C.ar        1 YKI      -0.0553
     31 C25        -0.6523   10.1488   25.0770 C.ar        1 YKI       0.0172
     32 C26        -1.8348   10.8082   25.4266 C.ar        1 YKI       0.1409
     33 C27        -1.6565   10.9915   23.2553 C.2         1 YKI       0.0293
     34 C28        -0.5431   10.2786   23.6932 C.2         1 YKI      -0.0523
     35 H1          7.3310    1.8257   19.8402 H           1 YKI       0.0705
     36 H2          3.6714    3.7417   20.0917 H           1 YKI       0.0763
     37 H3          3.3070    4.9971   22.6271 H           1 YKI       0.2328
     38 H4          7.9074    2.5053   22.1293 H           1 YKI       0.0643
     39 H5          2.3282    9.7735   27.2989 H           1 YKI       0.1910
     40 H6         -3.2198   11.8294   24.3171 H           1 YKI       0.2313
     41 H7          3.1791    6.7460   28.3542 H           1 YKI       0.0605
     42 H8          3.4044    4.3381   28.0945 H           1 YKI       0.0605
     43 H9          4.2269    3.4060   26.0307 H           1 YKI       0.0619
     44 H10         0.2612    9.3119   28.1996 H           1 YKI       0.0656
     45 H11        -1.8004   10.4694   28.6773 H           1 YKI       0.0758
     46 H12         4.4169    9.0992   27.1442 H           1 YKI       0.0919
     47 H13         5.5602    6.9680   22.5849 H           1 YKI       0.0603
     48 H14         5.8841    9.1046   21.5236 H           1 YKI       0.0563
     49 H15         5.2914   11.1494   22.6882 H           1 YKI       0.0597
     50 H16         4.3343   11.0562   24.9235 H           1 YKI       0.0566
     51 H17        -1.8523   11.2599   22.2916 H           1 YKI       0.0983
     52 H18         0.2211    9.9419   23.1097 H           1 YKI       0.0310
@<TRIPOS>BOND
     1     1     2  ar
     2     5     1  ar
     3     3     2  ar
     4    11     3  ar
     5     7     4   1
     6     4    11   1
     7     9     5  ar
     8     7     6   2
     9     6     9   1
    10    13     7   1
    11     8    17  am
    12    22     8   1
    13     9    11  ar
    14    21    10  ar
    15    10    32  ar
    16    32    12   1
    17    12    33   1
    18    16    13  ar
    19    13    24  ar
    20    14    15  ar
    21    23    14  ar
    22    15    16  ar
    23    17    18   1
    24    17    19   2
    25    18    20  ar
    26    18    31  ar
    27    20    21  ar
    28    22    23   1
    29    22    25   1
    30    23    24  ar
    31    24    26   1
    32    25    26  ar
    33    25    30  ar
    34    26    27  ar
    35    27    28  ar
    36    28    29  ar
    37    29    30  ar
    38    31    32  ar
    39    31    34   1
    40    33    34   2
    41     1    35   1
    42     3    36   1
    43     4    37   1
    44     5    38   1
    45     8    39   1
    46    12    40   1
    47    14    41   1
    48    15    42   1
    49    16    43   1
    50    20    44   1
    51    21    45   1
    52    22    46   1
    53    27    47   1
    54    28    48   1
    55    29    49   1
    56    30    50   1
    57    33    51   1
    58    34    52   1
@<TRIPOS>SUBSTRUCTURE
     1  YKI      1

