@<TRIPOS>MOLECULE
2yki_ligand_051
    52    58
SMALL
GAST_HUCK
****
This file was generated by PARSER (from files_GN.cpp)

@<TRIPOS>ATOM
      1 C1          3.1745   -0.7769   27.7282 C.ar        1 YKI      -0.0069
      2 N1          4.1448   -0.6622   26.7758 N.ar        1 YKI      -0.3145
      3 C2          4.6989    0.5298   26.4170 C.ar        1 YKI       0.0318
      4 N2          4.5568    2.9830   26.9190 N.pl3       1 YKI      -0.2421
      5 C3          2.6999    0.3728   28.3951 C.ar        1 YKI      -0.0358
      6 N3          2.9868    2.8512   28.4686 N.2         1 YKI      -0.2951
      7 C4          3.7732    3.6890   27.7611 C.2         1 YKI       0.1441
      8 N4          2.1203    8.9819   25.9728 N.am        1 YKI      -0.2584
      9 C5          3.2519    1.6107   28.0310 C.ar        1 YKI       0.0509
     10 N5         -2.2422   11.3731   26.5638 N.ar        1 YKI      -0.2805
     11 C6          4.2403    1.6927   27.0549 C.ar        1 YKI       0.1092
     12 N6         -2.2801   11.4290   24.1319 N.pl3       1 YKI      -0.2631
     13 C7          3.7890    5.0850   27.9014 C.ar        1 YKI       0.0361
     14 C8          3.9512    7.8973   28.2899 C.ar        1 YKI      -0.0512
     15 C9          4.2029    7.0203   29.3592 C.ar        1 YKI      -0.0623
     16 C10         4.0987    5.6278   29.1737 C.ar        1 YKI      -0.0499
     17 C11         0.8497    8.6091   26.1250 C.2         1 YKI       0.2116
     18 C12        -0.1263    9.5575   26.2553 C.ar        1 YKI       0.0544
     19 O13         0.5057    7.4297   26.1636 O.2         1 YKI      -0.3825
     20 C14        -0.5718    9.9362   27.5463 C.ar        1 YKI      -0.0315
     21 C15        -1.6400   10.8525   27.6707 C.ar        1 YKI       0.0006
     22 C16         3.2697    8.1322   25.8206 C.3         1 YKI       0.1112
     23 C17         3.6028    7.3636   27.0337 C.ar        1 YKI       0.0062
     24 C18         3.5234    5.9734   26.8259 C.ar        1 YKI       0.0013
     25 C19         3.0565    7.0335   24.8662 C.ar        1 YKI       0.0020
     26 C20         3.1381    5.7805   25.4917 C.ar        1 YKI      -0.0129
     27 C21         2.7564    4.6291   24.7727 C.ar        1 YKI      -0.0610
     28 C22         2.3359    4.7446   23.4310 C.ar        1 YKI      -0.0680
     29 C23         2.3017    6.0055   22.8035 C.ar        1 YKI      -0.0680
     30 C24         2.6593    7.1627   23.5208 C.ar        1 YKI      -0.0553
     31 C25        -0.7616   10.1358   25.1372 C.ar        1 YKI       0.0172
     32 C26        -1.8114   11.0377   25.3258 C.ar        1 YKI       0.1409
     33 C27        -1.5754   10.8190   23.1649 C.2         1 YKI       0.0293
     34 C28        -0.6137   10.0017   23.7596 C.2         1 YKI      -0.0523
     35 H1          2.7945   -1.6957   27.9534 H           1 YKI       0.0705
     36 H2          5.4179    0.5728   25.6930 H           1 YKI       0.0763
     37 H3          5.2150    3.3499   26.3079 H           1 YKI       0.2328
     38 H4          1.9671    0.3097   29.1071 H           1 YKI       0.0643
     39 H5          2.2817    9.9384   25.9490 H           1 YKI       0.1910
     40 H6         -3.0283   12.0316   24.0040 H           1 YKI       0.2313
     41 H7          4.0226    8.9063   28.4240 H           1 YKI       0.0605
     42 H8          4.4612    7.3939   30.2763 H           1 YKI       0.0605
     43 H9          4.2895    5.0102   29.9731 H           1 YKI       0.0619
     44 H10        -0.1388    9.5571   28.3919 H           1 YKI       0.0656
     45 H11        -1.9761   11.1247   28.5926 H           1 YKI       0.0758
     46 H12         4.1299    8.7357   25.5227 H           1 YKI       0.0919
     47 H13         2.7299    3.7107   25.2176 H           1 YKI       0.0603
     48 H14         2.0327    3.9121   22.9193 H           1 YKI       0.0563
     49 H15         1.9734    6.0853   21.8368 H           1 YKI       0.0597
     50 H16         2.5901    8.0834   23.0806 H           1 YKI       0.0566
     51 H17        -1.7378   10.9217   22.1626 H           1 YKI       0.0983
     52 H18         0.0608    9.4051   23.2752 H           1 YKI       0.0310
@<TRIPOS>BOND
     1     1     2  ar
     2     5     1  ar
     3     3     2  ar
     4    11     3  ar
     5     7     4   1
     6     4    11   1
     7     9     5  ar
     8     7     6   2
     9     6     9   1
    10    13     7   1
    11     8    17  am
    12    22     8   1
    13     9    11  ar
    14    21    10  ar
    15    10    32  ar
    16    32    12   1
    17    12    33   1
    18    16    13  ar
    19    13    24  ar
    20    14    15  ar
    21    23    14  ar
    22    15    16  ar
    23    17    18   1
    24    17    19   2
    25    18    20  ar
    26    18    31  ar
    27    20    21  ar
    28    22    23   1
    29    22    25   1
    30    23    24  ar
    31    24    26   1
    32    25    26  ar
    33    25    30  ar
    34    26    27  ar
    35    27    28  ar
    36    28    29  ar
    37    29    30  ar
    38    31    32  ar
    39    31    34   1
    40    33    34   2
    41     1    35   1
    42     3    36   1
    43     4    37   1
    44     5    38   1
    45     8    39   1
    46    12    40   1
    47    14    41   1
    48    15    42   1
    49    16    43   1
    50    20    44   1
    51    21    45   1
    52    22    46   1
    53    27    47   1
    54    28    48   1
    55    29    49   1
    56    30    50   1
    57    33    51   1
    58    34    52   1
@<TRIPOS>SUBSTRUCTURE
     1  YKI      1

