@<TRIPOS>MOLECULE
2yki_ligand_059
    52    58
SMALL
GAST_HUCK
****
This file was generated by PARSER (from files_GN.cpp)

@<TRIPOS>ATOM
      1 C1         -0.4627   12.9020   24.0629 C.ar        1 YKI      -0.0069
      2 N1         -0.5598   12.4667   25.3511 N.ar        1 YKI      -0.3145
      3 C2          0.2531   11.5091   25.8772 C.ar        1 YKI       0.0318
      4 N2          2.1595    9.9987   25.2485 N.pl3       1 YKI      -0.2421
      5 C3          0.5149   12.3585   23.2022 C.ar        1 YKI      -0.0358
      6 N3          2.3598   10.6839   23.1564 N.2         1 YKI      -0.2951
      7 C4          2.8342    9.8370   24.0935 C.2         1 YKI       0.1441
      8 N4          4.7372    4.6270   22.4062 N.am        1 YKI      -0.2584
      9 C5          1.3605   11.3697   23.7287 C.ar        1 YKI       0.0509
     10 N5          5.8299    1.9433   18.3533 N.ar        1 YKI      -0.2805
     11 C6          1.2350   10.9416   25.0474 C.ar        1 YKI       0.1092
     12 N6          8.1648    1.7699   19.0396 N.pl3       1 YKI      -0.2631
     13 C7          3.8936    8.9405   23.8792 C.ar        1 YKI       0.0361
     14 C8          6.1150    7.2263   23.4163 C.ar        1 YKI      -0.0512
     15 C9          6.2856    8.6203   23.4172 C.ar        1 YKI      -0.0623
     16 C10         5.1840    9.4709   23.6365 C.ar        1 YKI      -0.0499
     17 C11         5.1777    3.3882   22.2280 C.2         1 YKI       0.2116
     18 C12         5.3942    2.9191   20.9533 C.ar        1 YKI       0.0544
     19 O13         5.4765    2.6569   23.1645 O.2         1 YKI      -0.3825
     20 C14         4.3298    2.8204   20.0239 C.ar        1 YKI      -0.0315
     21 C15         4.5740    2.3134   18.7286 C.ar        1 YKI       0.0006
     22 C16         4.4796    5.2627   23.6665 C.3         1 YKI       0.1112
     23 C17         4.8311    6.6944   23.6385 C.ar        1 YKI       0.0062
     24 C18         3.7258    7.5308   23.8740 C.ar        1 YKI       0.0013
     25 C19         3.0380    5.3634   23.9546 C.ar        1 YKI       0.0020
     26 C20         2.6095    6.6972   24.0521 C.ar        1 YKI      -0.0129
     27 C21         1.2440    6.9787   24.2858 C.ar        1 YKI      -0.0610
     28 C22         0.3317    5.9148   24.4439 C.ar        1 YKI      -0.0680
     29 C23         0.7759    4.5792   24.3671 C.ar        1 YKI      -0.0680
     30 C24         2.1313    4.2975   24.1154 C.ar        1 YKI      -0.0553
     31 C25         6.6781    2.5157   20.5222 C.ar        1 YKI       0.0172
     32 C26         6.8646    2.0451   19.2221 C.ar        1 YKI       0.1409
     33 C27         8.8324    2.0421   20.1757 C.2         1 YKI       0.0293
     34 C28         7.9284    2.5094   21.1274 C.2         1 YKI      -0.0523
     35 H1         -1.0983   13.6259   23.7241 H           1 YKI       0.0705
     36 H2          0.1495   11.2172   26.8485 H           1 YKI       0.0763
     37 H3          2.3151    9.5160   26.0770 H           1 YKI       0.2328
     38 H4          0.6046   12.6676   22.2328 H           1 YKI       0.0643
     39 H5          4.5952    5.1647   21.6088 H           1 YKI       0.1910
     40 H6          8.5561    1.4385   18.2154 H           1 YKI       0.2313
     41 H7          6.9121    6.6097   23.2519 H           1 YKI       0.0605
     42 H8          7.2092    9.0196   23.2531 H           1 YKI       0.0605
     43 H9          5.3370   10.4833   23.6360 H           1 YKI       0.0619
     44 H10         3.3776    3.0992   20.2838 H           1 YKI       0.0656
     45 H11         3.8080    2.2294   18.0560 H           1 YKI       0.0758
     46 H12         5.0059    4.7787   24.4938 H           1 YKI       0.0919
     47 H13         0.8988    7.9385   24.3293 H           1 YKI       0.0603
     48 H14        -0.6568    6.1136   24.6222 H           1 YKI       0.0563
     49 H15         0.1104    3.8159   24.4823 H           1 YKI       0.0597
     50 H16         2.4463    3.3302   24.0466 H           1 YKI       0.0566
     51 H17         9.8388    1.9283   20.3101 H           1 YKI       0.0983
     52 H18         8.1450    2.8123   22.0779 H           1 YKI       0.0310
@<TRIPOS>BOND
     1     1     2  ar
     2     5     1  ar
     3     3     2  ar
     4    11     3  ar
     5     7     4   1
     6     4    11   1
     7     9     5  ar
     8     7     6   2
     9     6     9   1
    10    13     7   1
    11     8    17  am
    12    22     8   1
    13     9    11  ar
    14    21    10  ar
    15    10    32  ar
    16    32    12   1
    17    12    33   1
    18    16    13  ar
    19    13    24  ar
    20    14    15  ar
    21    23    14  ar
    22    15    16  ar
    23    17    18   1
    24    17    19   2
    25    18    20  ar
    26    18    31  ar
    27    20    21  ar
    28    22    23   1
    29    22    25   1
    30    23    24  ar
    31    24    26   1
    32    25    26  ar
    33    25    30  ar
    34    26    27  ar
    35    27    28  ar
    36    28    29  ar
    37    29    30  ar
    38    31    32  ar
    39    31    34   1
    40    33    34   2
    41     1    35   1
    42     3    36   1
    43     4    37   1
    44     5    38   1
    45     8    39   1
    46    12    40   1
    47    14    41   1
    48    15    42   1
    49    16    43   1
    50    20    44   1
    51    21    45   1
    52    22    46   1
    53    27    47   1
    54    28    48   1
    55    29    49   1
    56    30    50   1
    57    33    51   1
    58    34    52   1
@<TRIPOS>SUBSTRUCTURE
     1  YKI      1

