@<TRIPOS>MOLECULE
2yki_ligand_019
    52    58
SMALL
GAST_HUCK
****
This file was generated by PARSER (from files_GN.cpp)

@<TRIPOS>ATOM
      1 C1          3.9678    1.6258   18.3378 C.ar        1 YKI      -0.0069
      2 N1          3.4744    2.5850   17.5054 N.ar        1 YKI      -0.3145
      3 C2          2.8800    3.7257   17.9541 C.ar        1 YKI       0.0318
      4 N2          2.2493    4.9020   20.0858 N.pl3       1 YKI      -0.2421
      5 C3          3.8676    1.7787   19.7348 C.ar        1 YKI      -0.0358
      6 N3          3.0462    3.3758   21.4685 N.2         1 YKI      -0.2951
      7 C4          2.4549    4.5865   21.3773 C.2         1 YKI       0.1441
      8 N4          2.1021    9.7261   24.0270 N.am        1 YKI      -0.2584
      9 C5          3.2551    2.9497   20.2165 C.ar        1 YKI       0.0509
     10 N5         -0.6473   13.9276   24.2603 N.ar        1 YKI      -0.2805
     11 C6          2.7618    3.9125   19.3392 C.ar        1 YKI       0.1092
     12 N6         -2.2753   12.1186   24.1523 N.pl3       1 YKI      -0.2631
     13 C7          2.1027    5.3698   22.4876 C.ar        1 YKI       0.0361
     14 C8          1.3379    6.8264   24.8057 C.ar        1 YKI      -0.0512
     15 C9          0.7714    5.5667   24.5450 C.ar        1 YKI      -0.0623
     16 C10         1.1615    4.8379   23.4060 C.ar        1 YKI      -0.0499
     17 C11         2.2123   10.8703   24.6969 C.2         1 YKI       0.2116
     18 C12         1.2624   11.8763   24.5493 C.ar        1 YKI       0.0544
     19 O13         3.1949   11.0779   25.3952 O.2         1 YKI      -0.3825
     20 C14         1.6361   13.2482   24.5716 C.ar        1 YKI      -0.0315
     21 C15         0.6617   14.2555   24.4155 C.ar        1 YKI       0.0006
     22 C16         3.0056    8.6208   24.0709 C.3         1 YKI       0.1112
     23 C17         2.2911    7.3444   23.9113 C.ar        1 YKI       0.0062
     24 C18         2.6737    6.6448   22.7540 C.ar        1 YKI       0.0013
     25 C19         3.8452    8.5914   22.8697 C.ar        1 YKI       0.0020
     26 C20         3.6471    7.4275   22.1108 C.ar        1 YKI      -0.0129
     27 C21         4.3921    7.2493   20.9268 C.ar        1 YKI      -0.0610
     28 C22         5.2831    8.2550   20.5020 C.ar        1 YKI      -0.0680
     29 C23         5.4799    9.4128   21.2790 C.ar        1 YKI      -0.0680
     30 C24         4.7652    9.5827   22.4763 C.ar        1 YKI      -0.0553
     31 C25        -0.1180   11.5914   24.3880 C.ar        1 YKI       0.0172
     32 C26        -1.0403   12.6330   24.2540 C.ar        1 YKI       0.1409
     33 C27        -2.2012   10.7806   24.2301 C.2         1 YKI       0.0293
     34 C28        -0.8678   10.4162   24.3830 C.2         1 YKI      -0.0523
     35 H1          4.4161    0.7959   17.9424 H           1 YKI       0.0705
     36 H2          2.5374    4.4273   17.2974 H           1 YKI       0.0763
     37 H3          1.8357    5.7185   19.7577 H           1 YKI       0.2328
     38 H4          4.2310    1.0708   20.3764 H           1 YKI       0.0643
     39 H5          1.3721    9.6557   23.3950 H           1 YKI       0.1910
     40 H6         -3.1012   12.6157   24.0784 H           1 YKI       0.2313
     41 H7          1.0651    7.3505   25.6389 H           1 YKI       0.0605
     42 H8          0.0815    5.1742   25.1912 H           1 YKI       0.0605
     43 H9          0.7392    3.9164   23.2465 H           1 YKI       0.0619
     44 H10         2.6171   13.5244   24.6750 H           1 YKI       0.0656
     45 H11         0.9333   15.2402   24.4171 H           1 YKI       0.0758
     46 H12         3.6253    8.5959   24.9709 H           1 YKI       0.0919
     47 H13         4.3097    6.4059   20.3629 H           1 YKI       0.0603
     48 H14         5.8005    8.1457   19.6320 H           1 YKI       0.0563
     49 H15         6.1386   10.1328   20.9704 H           1 YKI       0.0597
     50 H16         4.9076   10.4218   23.0455 H           1 YKI       0.0566
     51 H17        -2.9932   10.1368   24.1984 H           1 YKI       0.0983
     52 H18        -0.5233    9.4589   24.4902 H           1 YKI       0.0310
@<TRIPOS>BOND
     1     1     2  ar
     2     5     1  ar
     3     3     2  ar
     4    11     3  ar
     5     7     4   1
     6     4    11   1
     7     9     5  ar
     8     7     6   2
     9     6     9   1
    10    13     7   1
    11     8    17  am
    12    22     8   1
    13     9    11  ar
    14    21    10  ar
    15    10    32  ar
    16    32    12   1
    17    12    33   1
    18    16    13  ar
    19    13    24  ar
    20    14    15  ar
    21    23    14  ar
    22    15    16  ar
    23    17    18   1
    24    17    19   2
    25    18    20  ar
    26    18    31  ar
    27    20    21  ar
    28    22    23   1
    29    22    25   1
    30    23    24  ar
    31    24    26   1
    32    25    26  ar
    33    25    30  ar
    34    26    27  ar
    35    27    28  ar
    36    28    29  ar
    37    29    30  ar
    38    31    32  ar
    39    31    34   1
    40    33    34   2
    41     1    35   1
    42     3    36   1
    43     4    37   1
    44     5    38   1
    45     8    39   1
    46    12    40   1
    47    14    41   1
    48    15    42   1
    49    16    43   1
    50    20    44   1
    51    21    45   1
    52    22    46   1
    53    27    47   1
    54    28    48   1
    55    29    49   1
    56    30    50   1
    57    33    51   1
    58    34    52   1
@<TRIPOS>SUBSTRUCTURE
     1  YKI      1

