@<TRIPOS>MOLECULE
2yki_ligand_050
    52    58
SMALL
GAST_HUCK
****
This file was generated by PARSER (from files_GN.cpp)

@<TRIPOS>ATOM
      1 C1          3.1227   -3.2507   26.2917 C.ar        1 YKI      -0.0069
      2 N1          2.7198   -4.0380   25.2528 N.ar        1 YKI      -0.3145
      3 C2          2.9272   -3.7092   23.9475 C.ar        1 YKI       0.0318
      4 N2          3.9340   -1.9087   22.5188 N.pl3       1 YKI      -0.2421
      5 C3          3.7985   -2.0377   26.0417 C.ar        1 YKI      -0.0358
      6 N3          4.6489   -0.6237   24.1657 N.2         1 YKI      -0.2951
      7 C4          4.5747   -0.7669   22.8265 C.2         1 YKI       0.1441
      8 N4          4.3015    3.5609   18.9317 N.am        1 YKI      -0.2584
      9 C5          4.0219   -1.6821   24.7012 C.ar        1 YKI       0.0509
     10 N5          4.3663    8.5293   19.4627 N.ar        1 YKI      -0.2805
     11 C6          3.5832   -2.5005   23.6635 C.ar        1 YKI       0.1092
     12 N6          2.8477    8.2643   17.5647 N.pl3       1 YKI      -0.2631
     13 C7          5.1797    0.0745   21.8802 C.ar        1 YKI       0.0361
     14 C8          6.5394    1.5908   19.8980 C.ar        1 YKI      -0.0512
     15 C9          7.2611    0.9768   20.9368 C.ar        1 YKI      -0.0623
     16 C10         6.5877    0.2258   21.9193 C.ar        1 YKI      -0.0499
     17 C11         3.9672    4.3851   19.9223 C.2         1 YKI       0.2116
     18 C12         4.0927    5.7499   19.7569 C.ar        1 YKI       0.0544
     19 O13         3.5929    3.9619   21.0104 O.2         1 YKI      -0.3825
     20 C14         4.8721    6.5094   20.6630 C.ar        1 YKI      -0.0315
     21 C15         5.0070    7.9019   20.4851 C.ar        1 YKI       0.0006
     22 C16         4.2223    2.1258   18.9219 C.3         1 YKI       0.1112
     23 C17         5.1381    1.4702   19.8733 C.ar        1 YKI       0.0062
     24 C18         4.4522    0.7321   20.8533 C.ar        1 YKI       0.0013
     25 C19         2.9310    1.6366   19.4245 C.ar        1 YKI       0.0020
     26 C20         3.0775    0.8777   20.5947 C.ar        1 YKI      -0.0129
     27 C21         1.9273    0.5030   21.3231 C.ar        1 YKI      -0.0610
     28 C22         0.6497    0.8455   20.8316 C.ar        1 YKI      -0.0680
     29 C23         0.5165    1.5563   19.6216 C.ar        1 YKI      -0.0680
     30 C24         1.6615    1.9634   18.9133 C.ar        1 YKI      -0.0553
     31 C25         3.4467    6.4462   18.7104 C.ar        1 YKI       0.0172
     32 C26         3.5923    7.8307   18.5950 C.ar        1 YKI       0.1409
     33 C27         2.2214    7.2135   17.0059 C.2         1 YKI       0.0293
     34 C28         2.5759    6.0595   17.6969 C.2         1 YKI      -0.0523
     35 H1          2.9336   -3.5464   27.2503 H           1 YKI       0.0705
     36 H2          2.6160   -4.3289   23.1982 H           1 YKI       0.0763
     37 H3          3.7882   -2.2577   21.6248 H           1 YKI       0.2328
     38 H4          4.1158   -1.4395   26.8069 H           1 YKI       0.0643
     39 H5          4.6320    3.9702   18.1164 H           1 YKI       0.1910
     40 H6          2.7537    9.1892   17.2842 H           1 YKI       0.2313
     41 H7          7.0256    2.1478   19.1902 H           1 YKI       0.0605
     42 H8          8.2767    1.0796   20.9802 H           1 YKI       0.0605
     43 H9          7.1401   -0.2245   22.6543 H           1 YKI       0.0619
     44 H10         5.3689    6.0553   21.4347 H           1 YKI       0.0656
     45 H11         5.5903    8.4446   21.1258 H           1 YKI       0.0758
     46 H12         4.3952    1.7619   17.9083 H           1 YKI       0.0919
     47 H13         2.0035    0.0224   22.2188 H           1 YKI       0.0603
     48 H14        -0.1860    0.5912   21.3614 H           1 YKI       0.0563
     49 H15        -0.4111    1.8033   19.2704 H           1 YKI       0.0597
     50 H16         1.5730    2.5177   18.0577 H           1 YKI       0.0566
     51 H17         1.5735    7.2551   16.2181 H           1 YKI       0.0983
     52 H18         2.2314    5.1171   17.5081 H           1 YKI       0.0310
@<TRIPOS>BOND
     1     1     2  ar
     2     5     1  ar
     3     3     2  ar
     4    11     3  ar
     5     7     4   1
     6     4    11   1
     7     9     5  ar
     8     7     6   2
     9     6     9   1
    10    13     7   1
    11     8    17  am
    12    22     8   1
    13     9    11  ar
    14    21    10  ar
    15    10    32  ar
    16    32    12   1
    17    12    33   1
    18    16    13  ar
    19    13    24  ar
    20    14    15  ar
    21    23    14  ar
    22    15    16  ar
    23    17    18   1
    24    17    19   2
    25    18    20  ar
    26    18    31  ar
    27    20    21  ar
    28    22    23   1
    29    22    25   1
    30    23    24  ar
    31    24    26   1
    32    25    26  ar
    33    25    30  ar
    34    26    27  ar
    35    27    28  ar
    36    28    29  ar
    37    29    30  ar
    38    31    32  ar
    39    31    34   1
    40    33    34   2
    41     1    35   1
    42     3    36   1
    43     4    37   1
    44     5    38   1
    45     8    39   1
    46    12    40   1
    47    14    41   1
    48    15    42   1
    49    16    43   1
    50    20    44   1
    51    21    45   1
    52    22    46   1
    53    27    47   1
    54    28    48   1
    55    29    49   1
    56    30    50   1
    57    33    51   1
    58    34    52   1
@<TRIPOS>SUBSTRUCTURE
     1  YKI      1

