@<TRIPOS>MOLECULE
2yki_ligand_076
    52    58
SMALL
GAST_HUCK
****
This file was generated by PARSER (from files_GN.cpp)

@<TRIPOS>ATOM
      1 C1         18.0710   15.4251   38.5630 C.ar        1 YKI      -0.0069
      2 N1         16.9016   14.7232   38.5784 N.ar        1 YKI      -0.3145
      3 C2         16.1309   14.5416   37.4707 C.ar        1 YKI       0.0318
      4 N2         16.0587   15.0901   35.0212 N.pl3       1 YKI      -0.2421
      5 C3         18.5400   15.9943   37.3599 C.ar        1 YKI      -0.0358
      6 N3         17.9579   16.2030   34.9375 N.2         1 YKI      -0.2951
      7 C4         16.9189   15.7358   34.2096 C.2         1 YKI       0.1441
      8 N4         14.2114   14.3938   29.2516 N.am        1 YKI      -0.2584
      9 C5         17.7617   15.8090   36.2047 C.ar        1 YKI       0.0509
     10 N5          9.8970   15.4337   26.8027 N.ar        1 YKI      -0.2805
     11 C6         16.5661   15.0987   36.2571 C.ar        1 YKI       0.1092
     12 N6          9.3060   13.7510   28.4558 N.pl3       1 YKI      -0.2631
     13 C7         16.7434   15.9492   32.8245 C.ar        1 YKI       0.0361
     14 C8         16.2684   16.5891   30.0897 C.ar        1 YKI      -0.0512
     15 C9         16.7981   17.5551   30.9608 C.ar        1 YKI      -0.0623
     16 C10        17.0349   17.2381   32.3110 C.ar        1 YKI      -0.0499
     17 C11        13.8920   14.7169   28.0010 C.2         1 YKI       0.2116
     18 C12        12.5671   14.9458   27.6161 C.ar        1 YKI       0.0544
     19 O13        14.7824   14.8882   27.1765 O.2         1 YKI      -0.3825
     20 C14        12.2521   15.8799   26.5909 C.ar        1 YKI      -0.0315
     21 C15        10.9108   16.1150   26.2105 C.ar        1 YKI       0.0006
     22 C16        15.5238   14.1582   29.7792 C.3         1 YKI       0.1112
     23 C17        16.0108   15.2959   30.5784 C.ar        1 YKI       0.0062
     24 C18        16.2590   14.9604   31.9216 C.ar        1 YKI       0.0013
     25 C19        15.5139   13.1138   30.8135 C.ar        1 YKI       0.0020
     26 C20        15.9918   13.5857   32.0467 C.ar        1 YKI      -0.0129
     27 C21        16.2083   12.6687   33.0997 C.ar        1 YKI      -0.0610
     28 C22        15.8399   11.3196   32.9422 C.ar        1 YKI      -0.0680
     29 C23        15.3078   10.8696   31.7192 C.ar        1 YKI      -0.0680
     30 C24        15.1578   11.7617   30.6400 C.ar        1 YKI      -0.0553
     31 C25        11.4667   14.2746   28.2053 C.ar        1 YKI       0.0172
     32 C26        10.1595   14.5256   27.7711 C.ar        1 YKI       0.1409
     33 C27        10.0049   13.0078   29.3283 C.2         1 YKI       0.0293
     34 C28        11.3541   13.3075   29.1984 C.2         1 YKI      -0.0523
     35 H1         18.6041   15.5331   39.4277 H           1 YKI       0.0705
     36 H2         15.2636   14.0093   37.5275 H           1 YKI       0.0763
     37 H3         15.2356   14.6538   34.7474 H           1 YKI       0.2328
     38 H4         19.4155   16.5192   37.3270 H           1 YKI       0.0643
     39 H5         13.4916   14.3706   29.8985 H           1 YKI       0.1910
     40 H6          8.3420   13.7442   28.3527 H           1 YKI       0.2313
     41 H7         16.0968   16.8190   29.1082 H           1 YKI       0.0605
     42 H8         17.0070   18.4935   30.6144 H           1 YKI       0.0605
     43 H9         17.3940   17.9749   32.9235 H           1 YKI       0.0619
     44 H10        12.9925   16.4217   26.1408 H           1 YKI       0.0656
     45 H11        10.6864   16.8116   25.4987 H           1 YKI       0.0758
     46 H12        16.2607   13.9005   29.0110 H           1 YKI       0.0919
     47 H13        16.6511   12.9488   33.9713 H           1 YKI       0.0603
     48 H14        15.9748   10.6631   33.7135 H           1 YKI       0.0563
     49 H15        15.0685    9.8827   31.6044 H           1 YKI       0.0597
     50 H16        14.8188   11.4226   29.7361 H           1 YKI       0.0566
     51 H17         9.6194   12.3387   29.9907 H           1 YKI       0.0983
     52 H18        12.1073   12.8635   29.7246 H           1 YKI       0.0310
@<TRIPOS>BOND
     1     1     2  ar
     2     5     1  ar
     3     3     2  ar
     4    11     3  ar
     5     7     4   1
     6     4    11   1
     7     9     5  ar
     8     7     6   2
     9     6     9   1
    10    13     7   1
    11     8    17  am
    12    22     8   1
    13     9    11  ar
    14    21    10  ar
    15    10    32  ar
    16    32    12   1
    17    12    33   1
    18    16    13  ar
    19    13    24  ar
    20    14    15  ar
    21    23    14  ar
    22    15    16  ar
    23    17    18   1
    24    17    19   2
    25    18    20  ar
    26    18    31  ar
    27    20    21  ar
    28    22    23   1
    29    22    25   1
    30    23    24  ar
    31    24    26   1
    32    25    26  ar
    33    25    30  ar
    34    26    27  ar
    35    27    28  ar
    36    28    29  ar
    37    29    30  ar
    38    31    32  ar
    39    31    34   1
    40    33    34   2
    41     1    35   1
    42     3    36   1
    43     4    37   1
    44     5    38   1
    45     8    39   1
    46    12    40   1
    47    14    41   1
    48    15    42   1
    49    16    43   1
    50    20    44   1
    51    21    45   1
    52    22    46   1
    53    27    47   1
    54    28    48   1
    55    29    49   1
    56    30    50   1
    57    33    51   1
    58    34    52   1
@<TRIPOS>SUBSTRUCTURE
     1  YKI      1

