@<TRIPOS>MOLECULE
2yki_ligand_017
    52    58
SMALL
GAST_HUCK
****
This file was generated by PARSER (from files_GN.cpp)

@<TRIPOS>ATOM
      1 C1         -0.1942   10.3948   27.5718 C.ar        1 YKI      -0.0069
      2 N1         -1.2885   10.2876   26.7631 N.ar        1 YKI      -0.3145
      3 C2         -1.2766    9.6134   25.5800 C.ar        1 YKI       0.0318
      4 N2          0.2411    8.2592   24.1112 N.pl3       1 YKI      -0.2421
      5 C3          1.0250    9.7920   27.1948 C.ar        1 YKI      -0.0358
      6 N3          2.0500    8.4292   25.3637 N.2         1 YKI      -0.2951
      7 C4          1.5378    7.9160   24.2259 C.2         1 YKI       0.1441
      8 N4          2.5719    3.1274   21.0271 N.am        1 YKI      -0.2584
      9 C5          1.0549    9.0891   25.9768 C.ar        1 YKI       0.0509
     10 N5          1.8289    1.0069   16.5371 N.ar        1 YKI      -0.2805
     11 C6         -0.0834    8.9924   25.1808 C.ar        1 YKI       0.1092
     12 N6         -0.2579    0.6308   17.7340 N.pl3       1 YKI      -0.2631
     13 C7          2.2923    7.1940   23.2847 C.ar        1 YKI       0.0361
     14 C8          4.0332    5.8365   21.4924 C.ar        1 YKI      -0.0512
     15 C9          4.0903    7.2363   21.6083 C.ar        1 YKI      -0.0623
     16 C10         3.2397    7.9060   22.5088 C.ar        1 YKI      -0.0499
     17 C11         3.3160    2.3602   20.2358 C.2         1 YKI       0.2116
     18 C12         2.8150    1.9040   19.0208 C.ar        1 YKI       0.0544
     19 O13         4.4839    2.1228   20.5236 O.2         1 YKI      -0.3825
     20 C14         3.6388    1.8695   17.8636 C.ar        1 YKI      -0.0315
     21 C15         3.1184    1.4253   16.6306 C.ar        1 YKI       0.0006
     22 C16         2.9475    3.6601   22.3019 C.3         1 YKI       0.1112
     23 C17         3.0932    5.1232   22.2569 C.ar        1 YKI       0.0062
     24 C18         2.2156    5.7832   23.1347 C.ar        1 YKI       0.0013
     25 C19         1.8510    3.5422   23.2731 C.ar        1 YKI       0.0020
     26 C20         1.4384    4.7939   23.7540 C.ar        1 YKI      -0.0129
     27 C21         0.4053    4.8697   24.7128 C.ar        1 YKI      -0.0610
     28 C22        -0.2072    3.6853   25.1692 C.ar        1 YKI      -0.0680
     29 C23         0.2128    2.4318   24.6805 C.ar        1 YKI      -0.0680
     30 C24         1.2516    2.3529   23.7329 C.ar        1 YKI      -0.0553
     31 C25         1.4800    1.4523   18.8724 C.ar        1 YKI       0.0172
     32 C26         1.0218    1.0148   17.6257 C.ar        1 YKI       0.1409
     33 C27        -0.6545    0.7846   19.0088 C.2         1 YKI       0.0293
     34 C28         0.4109    1.2853   19.7505 C.2         1 YKI      -0.0523
     35 H1         -0.2672   10.9113   28.4491 H           1 YKI       0.0705
     36 H2         -2.1151    9.5611   25.0030 H           1 YKI       0.0763
     37 H3         -0.3648    8.0137   23.3936 H           1 YKI       0.2328
     38 H4          1.8544    9.8571   27.7853 H           1 YKI       0.0643
     39 H5          1.6905    3.3756   20.7049 H           1 YKI       0.1910
     40 H6         -0.8022    0.2839   17.0105 H           1 YKI       0.2313
     41 H7          4.6755    5.3465   20.8659 H           1 YKI       0.0605
     42 H8          4.7630    7.7666   21.0504 H           1 YKI       0.0605
     43 H9          3.3222    8.9241   22.5941 H           1 YKI       0.0619
     44 H10         4.6120    2.1839   17.9024 H           1 YKI       0.0656
     45 H11         3.7092    1.4204   15.7973 H           1 YKI       0.0758
     46 H12         3.8546    3.2049   22.7122 H           1 YKI       0.0919
     47 H13         0.0914    5.7631   25.0839 H           1 YKI       0.0603
     48 H14        -0.9614    3.7351   25.8582 H           1 YKI       0.0563
     49 H15        -0.2378    1.5764   25.0141 H           1 YKI       0.0597
     50 H16         1.5624    1.4438   23.3830 H           1 YKI       0.0566
     51 H17        -1.5798    0.5590   19.3745 H           1 YKI       0.0983
     52 H18         0.4004    1.4731   20.7545 H           1 YKI       0.0310
@<TRIPOS>BOND
     1     1     2  ar
     2     5     1  ar
     3     3     2  ar
     4    11     3  ar
     5     7     4   1
     6     4    11   1
     7     9     5  ar
     8     7     6   2
     9     6     9   1
    10    13     7   1
    11     8    17  am
    12    22     8   1
    13     9    11  ar
    14    21    10  ar
    15    10    32  ar
    16    32    12   1
    17    12    33   1
    18    16    13  ar
    19    13    24  ar
    20    14    15  ar
    21    23    14  ar
    22    15    16  ar
    23    17    18   1
    24    17    19   2
    25    18    20  ar
    26    18    31  ar
    27    20    21  ar
    28    22    23   1
    29    22    25   1
    30    23    24  ar
    31    24    26   1
    32    25    26  ar
    33    25    30  ar
    34    26    27  ar
    35    27    28  ar
    36    28    29  ar
    37    29    30  ar
    38    31    32  ar
    39    31    34   1
    40    33    34   2
    41     1    35   1
    42     3    36   1
    43     4    37   1
    44     5    38   1
    45     8    39   1
    46    12    40   1
    47    14    41   1
    48    15    42   1
    49    16    43   1
    50    20    44   1
    51    21    45   1
    52    22    46   1
    53    27    47   1
    54    28    48   1
    55    29    49   1
    56    30    50   1
    57    33    51   1
    58    34    52   1
@<TRIPOS>SUBSTRUCTURE
     1  YKI      1

