@<TRIPOS>MOLECULE
2yki_ligand_023
    52    58
SMALL
GAST_HUCK
****
This file was generated by PARSER (from files_GN.cpp)

@<TRIPOS>ATOM
      1 C1          6.4178   14.4836   25.3183 C.ar        1 YKI      -0.0069
      2 N1          7.4930   14.2512   24.5132 N.ar        1 YKI      -0.3145
      3 C2          7.7730   13.0302   23.9749 C.ar        1 YKI       0.0318
      4 N2          6.8889   10.6868   23.8769 N.pl3       1 YKI      -0.2421
      5 C3          5.5311   13.4295   25.6298 C.ar        1 YKI      -0.0358
      6 N3          5.1431   10.9973   25.1881 N.2         1 YKI      -0.2951
      7 C4          5.7983   10.0984   24.4226 C.2         1 YKI       0.1441
      8 N4          2.4036    5.7564   22.4552 N.am        1 YKI      -0.2584
      9 C5          5.7973   12.1654   25.0781 C.ar        1 YKI       0.0509
     10 N5          2.1636    3.6048   17.8624 N.ar        1 YKI      -0.2805
     11 C6          6.9070   11.9617   24.2536 C.ar        1 YKI       0.1092
     12 N6          2.9575    5.5158   16.5879 N.pl3       1 YKI      -0.2631
     13 C7          5.4872    8.7272   24.2894 C.ar        1 YKI       0.0361
     14 C8          5.0131    5.9191   24.1829 C.ar        1 YKI      -0.0512
     15 C9          6.3158    6.4078   24.3809 C.ar        1 YKI      -0.0623
     16 C10         6.5453    7.7969   24.4329 C.ar        1 YKI      -0.0499
     17 C11         3.0169    5.9488   21.2822 C.2         1 YKI       0.2116
     18 C12         2.7654    5.1731   20.1474 C.ar        1 YKI       0.0544
     19 O13         3.9374    6.7799   21.2402 O.2         1 YKI      -0.3825
     20 C14         2.2376    3.8509   20.2527 C.ar        1 YKI      -0.0315
     21 C15         1.9521    3.0943   19.1004 C.ar        1 YKI       0.0006
     22 C16         2.5792    6.4669   23.6967 C.3         1 YKI       0.1112
     23 C17         3.9672    6.8255   24.0151 C.ar        1 YKI       0.0062
     24 C18         4.1747    8.2209   24.0581 C.ar        1 YKI       0.0013
     25 C19         1.9685    7.7993   23.6735 C.ar        1 YKI       0.0020
     26 C20         2.9169    8.8206   23.8258 C.ar        1 YKI      -0.0129
     27 C21         2.4929   10.1679   23.7232 C.ar        1 YKI      -0.0610
     28 C22         1.1225   10.4635   23.5881 C.ar        1 YKI      -0.0680
     29 C23         0.1753    9.4229   23.5121 C.ar        1 YKI      -0.0680
     30 C24         0.5979    8.0823   23.5229 C.ar        1 YKI      -0.0553
     31 C25         2.9939    5.6452   18.8262 C.ar        1 YKI       0.0172
     32 C26         2.6714    4.8471   17.7185 C.ar        1 YKI       0.1409
     33 C27         3.4549    6.7194   16.9114 C.2         1 YKI       0.0293
     34 C28         3.4876    6.8322   18.2951 C.2         1 YKI      -0.0523
     35 H1          6.2568   15.4137   25.6934 H           1 YKI       0.0705
     36 H2          8.5865   12.9018   23.3814 H           1 YKI       0.0763
     37 H3          7.5259   10.2510   23.3001 H           1 YKI       0.2328
     38 H4          4.7163   13.5773   26.2325 H           1 YKI       0.0643
     39 H5          1.7075    5.0642   22.4559 H           1 YKI       0.1910
     40 H6          2.8360    5.1717   15.6865 H           1 YKI       0.2313
     41 H7          4.8496    4.9098   24.1411 H           1 YKI       0.0605
     42 H8          7.0933    5.7509   24.5051 H           1 YKI       0.0605
     43 H9          7.5061    8.1159   24.6059 H           1 YKI       0.0619
     44 H10         2.0582    3.4342   21.1617 H           1 YKI       0.0656
     45 H11         1.5745    2.1475   19.1894 H           1 YKI       0.0758
     46 H12         2.1459    5.8802   24.5085 H           1 YKI       0.0919
     47 H13         3.1536   10.9365   23.7314 H           1 YKI       0.0603
     48 H14         0.8158   11.4370   23.5529 H           1 YKI       0.0563
     49 H15        -0.8162    9.6473   23.4287 H           1 YKI       0.0597
     50 H16        -0.0809    7.3265   23.4329 H           1 YKI       0.0566
     51 H17         3.7709    7.4313   16.2531 H           1 YKI       0.0983
     52 H18         3.8166    7.6477   18.8117 H           1 YKI       0.0310
@<TRIPOS>BOND
     1     1     2  ar
     2     5     1  ar
     3     3     2  ar
     4    11     3  ar
     5     7     4   1
     6     4    11   1
     7     9     5  ar
     8     7     6   2
     9     6     9   1
    10    13     7   1
    11     8    17  am
    12    22     8   1
    13     9    11  ar
    14    21    10  ar
    15    10    32  ar
    16    32    12   1
    17    12    33   1
    18    16    13  ar
    19    13    24  ar
    20    14    15  ar
    21    23    14  ar
    22    15    16  ar
    23    17    18   1
    24    17    19   2
    25    18    20  ar
    26    18    31  ar
    27    20    21  ar
    28    22    23   1
    29    22    25   1
    30    23    24  ar
    31    24    26   1
    32    25    26  ar
    33    25    30  ar
    34    26    27  ar
    35    27    28  ar
    36    28    29  ar
    37    29    30  ar
    38    31    32  ar
    39    31    34   1
    40    33    34   2
    41     1    35   1
    42     3    36   1
    43     4    37   1
    44     5    38   1
    45     8    39   1
    46    12    40   1
    47    14    41   1
    48    15    42   1
    49    16    43   1
    50    20    44   1
    51    21    45   1
    52    22    46   1
    53    27    47   1
    54    28    48   1
    55    29    49   1
    56    30    50   1
    57    33    51   1
    58    34    52   1
@<TRIPOS>SUBSTRUCTURE
     1  YKI      1

