@<TRIPOS>MOLECULE
2yki_ligand_049
    52    58
SMALL
GAST_HUCK
****
This file was generated by PARSER (from files_GN.cpp)

@<TRIPOS>ATOM
      1 C1         -1.1044    1.7045   24.1711 C.ar        1 YKI      -0.0069
      2 N1         -1.6405    1.2231   25.3290 N.ar        1 YKI      -0.3145
      3 C2         -1.0614    1.4113   26.5490 C.ar        1 YKI       0.0318
      4 N2          0.9259    2.5135   27.6257 N.pl3       1 YKI      -0.2421
      5 C3          0.1037    2.4296   24.1959 C.ar        1 YKI      -0.0358
      6 N3          1.8227    3.3178   25.7732 N.2         1 YKI      -0.2951
      7 C4          1.9405    3.2388   27.1116 C.2         1 YKI       0.1441
      8 N4          3.8372    6.9417   31.2376 N.am        1 YKI      -0.2584
      9 C5          0.7046    2.6500   25.4467 C.ar        1 YKI       0.0509
     10 N5          3.8097    6.7688   36.2764 N.ar        1 YKI      -0.2805
     11 C6          0.1323    2.1487   26.6137 C.ar        1 YKI       0.1092
     12 N6          5.9242    5.7043   35.6989 N.pl3       1 YKI      -0.2631
     13 C7          2.9915    3.7945   27.8575 C.ar        1 YKI       0.0361
     14 C8          5.1737    4.8274   29.3562 C.ar        1 YKI      -0.0512
     15 C9          5.2852    3.5832   28.7085 C.ar        1 YKI      -0.0623
     16 C10         4.2016    3.0669   27.9672 C.ar        1 YKI      -0.0499
     17 C11         2.9630    6.5515   32.1625 C.2         1 YKI       0.2116
     18 C12         3.2584    6.6410   33.5142 C.ar        1 YKI       0.0544
     19 O13         1.8649    6.1125   31.8428 O.2         1 YKI      -0.3825
     20 C14         2.3172    7.1787   34.4337 C.ar        1 YKI      -0.0315
     21 C15         2.6242    7.2447   35.8107 C.ar        1 YKI       0.0006
     22 C16         3.7123    6.8869   29.8030 C.3         1 YKI       0.1112
     23 C17         3.9736    5.5513   29.2462 C.ar        1 YKI       0.0062
     24 C18         2.8973    5.0608   28.4909 C.ar        1 YKI       0.0013
     25 C19         2.3752    7.1418   29.2382 C.ar        1 YKI       0.0020
     26 C20         1.9002    6.0458   28.4989 C.ar        1 YKI      -0.0129
     27 C21         0.6246    6.1048   27.8996 C.ar        1 YKI      -0.0610
     28 C22        -0.1533    7.2751   28.0491 C.ar        1 YKI      -0.0680
     29 C23         0.3383    8.3766   28.7841 C.ar        1 YKI      -0.0680
     30 C24         1.6073    8.3112   29.3906 C.ar        1 YKI      -0.0553
     31 C25         4.4855    6.1716   34.0526 C.ar        1 YKI       0.0172
     32 C26         4.7226    6.2403   35.4297 C.ar        1 YKI       0.1409
     33 C27         6.4800    5.2821   34.5492 C.2         1 YKI       0.0293
     34 C28         5.6098    5.5630   33.5015 C.2         1 YKI      -0.0523
     35 H1         -1.5913    1.5488   23.2873 H           1 YKI       0.0705
     36 H2         -1.5001    1.0365   27.3924 H           1 YKI       0.0763
     37 H3          0.8015    2.2813   28.5570 H           1 YKI       0.2328
     38 H4          0.5144    2.8056   23.3399 H           1 YKI       0.0643
     39 H5          4.6697    7.3125   31.5623 H           1 YKI       0.1910
     40 H6          6.3232    5.6123   36.5825 H           1 YKI       0.2313
     41 H7          5.9638    5.2042   29.8835 H           1 YKI       0.0605
     42 H8          6.1616    3.0576   28.7659 H           1 YKI       0.0605
     43 H9          4.3076    2.1614   27.5062 H           1 YKI       0.0619
     44 H10         1.4123    7.5427   34.1148 H           1 YKI       0.0656
     45 H11         1.9501    7.6396   36.4673 H           1 YKI       0.0758
     46 H12         4.4207    7.5966   29.3675 H           1 YKI       0.0919
     47 H13         0.2619    5.3256   27.3589 H           1 YKI       0.0603
     48 H14        -1.0741    7.3356   27.6105 H           1 YKI       0.0563
     49 H15        -0.2236    9.2188   28.8762 H           1 YKI       0.0597
     50 H16         1.9644    9.0994   29.9325 H           1 YKI       0.0566
     51 H17         7.3853    4.8131   34.4633 H           1 YKI       0.0983
     52 H18         5.7727    5.3389   32.5222 H           1 YKI       0.0310
@<TRIPOS>BOND
     1     1     2  ar
     2     5     1  ar
     3     3     2  ar
     4    11     3  ar
     5     7     4   1
     6     4    11   1
     7     9     5  ar
     8     7     6   2
     9     6     9   1
    10    13     7   1
    11     8    17  am
    12    22     8   1
    13     9    11  ar
    14    21    10  ar
    15    10    32  ar
    16    32    12   1
    17    12    33   1
    18    16    13  ar
    19    13    24  ar
    20    14    15  ar
    21    23    14  ar
    22    15    16  ar
    23    17    18   1
    24    17    19   2
    25    18    20  ar
    26    18    31  ar
    27    20    21  ar
    28    22    23   1
    29    22    25   1
    30    23    24  ar
    31    24    26   1
    32    25    26  ar
    33    25    30  ar
    34    26    27  ar
    35    27    28  ar
    36    28    29  ar
    37    29    30  ar
    38    31    32  ar
    39    31    34   1
    40    33    34   2
    41     1    35   1
    42     3    36   1
    43     4    37   1
    44     5    38   1
    45     8    39   1
    46    12    40   1
    47    14    41   1
    48    15    42   1
    49    16    43   1
    50    20    44   1
    51    21    45   1
    52    22    46   1
    53    27    47   1
    54    28    48   1
    55    29    49   1
    56    30    50   1
    57    33    51   1
    58    34    52   1
@<TRIPOS>SUBSTRUCTURE
     1  YKI      1

