@<TRIPOS>MOLECULE
2yki_ligand_025
    52    58
SMALL
GAST_HUCK
****
This file was generated by PARSER (from files_GN.cpp)

@<TRIPOS>ATOM
      1 C1          0.9097    6.6401   29.4526 C.ar        1 YKI      -0.0069
      2 N1         -0.0846    7.0404   28.6097 N.ar        1 YKI      -0.3145
      3 C2         -0.0766    6.7850   27.2719 C.ar        1 YKI       0.0318
      4 N2          1.3029    5.6583   25.5021 N.pl3       1 YKI      -0.2421
      5 C3          2.0200    5.9293   28.9497 C.ar        1 YKI      -0.0358
      6 N3          2.9419    4.9949   26.8264 N.2         1 YKI      -0.2951
      7 C4          2.4699    4.9874   25.5620 C.2         1 YKI       0.1441
      8 N4          2.1560    2.4043   20.4225 N.am        1 YKI      -0.2584
      9 C5          2.0412    5.6548   27.5715 C.ar        1 YKI       0.0509
     10 N5          1.7883    3.7802   15.6111 N.ar        1 YKI      -0.2805
     11 C6          1.0055    6.0705   26.7382 C.ar        1 YKI       0.1092
     12 N6          2.8550    5.7606   16.5646 N.pl3       1 YKI      -0.2631
     13 C7          3.1297    4.3873   24.4723 C.ar        1 YKI       0.0361
     14 C8          4.5422    3.3354   22.2406 C.ar        1 YKI      -0.0512
     15 C9          5.1594    4.2685   23.0898 C.ar        1 YKI      -0.0623
     16 C10         4.4614    4.7892   24.1957 C.ar        1 YKI      -0.0499
     17 C11         2.6774    1.9555   19.2931 C.2         1 YKI       0.2116
     18 C12         2.3761    2.5680   18.0886 C.ar        1 YKI       0.0544
     19 O13         3.4899    1.0298   19.2924 O.2         1 YKI      -0.3825
     20 C14         1.7188    1.8509   17.0528 C.ar        1 YKI      -0.0315
     21 C15         1.4311    2.4835   15.8242 C.ar        1 YKI       0.0006
     22 C16         2.4410    1.9360   21.7456 C.3         1 YKI       0.1112
     23 C17         3.2247    2.9180   22.5160 C.ar        1 YKI       0.0062
     24 C18         2.5277    3.4114   23.6337 C.ar        1 YKI       0.0013
     25 C19         1.2216    1.8856   22.5639 C.ar        1 YKI       0.0020
     26 C20         1.2957    2.7346   23.6806 C.ar        1 YKI      -0.0129
     27 C21         0.2592    2.7126   24.6371 C.ar        1 YKI      -0.0610
     28 C22        -0.8637    1.8850   24.4334 C.ar        1 YKI      -0.0680
     29 C23        -0.9472    1.0690   23.2880 C.ar        1 YKI      -0.0680
     30 C24         0.1029    1.0554   22.3528 C.ar        1 YKI      -0.0553
     31 C25         2.7181    3.9162   17.8218 C.ar        1 YKI       0.0172
     32 C26         2.4169    4.4870   16.5835 C.ar        1 YKI       0.1409
     33 C27         3.4544    6.0303   17.7376 C.2         1 YKI       0.0293
     34 C28         3.3957    4.8982   18.5486 C.2         1 YKI      -0.0523
     35 H1          0.8421    6.8577   30.4482 H           1 YKI       0.0705
     36 H2         -0.8404    7.1034   26.6771 H           1 YKI       0.0763
     37 H3          0.7637    5.8027   24.7070 H           1 YKI       0.2328
     38 H4          2.7732    5.6182   29.5677 H           1 YKI       0.0643
     39 H5          1.4818    3.1029   20.3542 H           1 YKI       0.1910
     40 H6          2.7732    6.3737   15.8175 H           1 YKI       0.2313
     41 H7          5.0476    2.9689   21.4310 H           1 YKI       0.0605
     42 H8          6.1183    4.5756   22.8992 H           1 YKI       0.0605
     43 H9          4.9305    5.4823   24.7843 H           1 YKI       0.0619
     44 H10         1.4439    0.8721   17.1820 H           1 YKI       0.0656
     45 H11         0.9557    1.9662   15.0788 H           1 YKI       0.0758
     46 H12         2.9394    0.9613   21.7667 H           1 YKI       0.0919
     47 H13         0.3150    3.2575   25.4938 H           1 YKI       0.0603
     48 H14        -1.6179    1.8687   25.1196 H           1 YKI       0.0563
     49 H15        -1.7628    0.4705   23.1434 H           1 YKI       0.0597
     50 H16         0.0657    0.4387   21.5400 H           1 YKI       0.0566
     51 H17         3.9089    6.9142   17.9821 H           1 YKI       0.0983
     52 H18         3.7778    4.8172   19.4894 H           1 YKI       0.0310
@<TRIPOS>BOND
     1     1     2  ar
     2     5     1  ar
     3     3     2  ar
     4    11     3  ar
     5     7     4   1
     6     4    11   1
     7     9     5  ar
     8     7     6   2
     9     6     9   1
    10    13     7   1
    11     8    17  am
    12    22     8   1
    13     9    11  ar
    14    21    10  ar
    15    10    32  ar
    16    32    12   1
    17    12    33   1
    18    16    13  ar
    19    13    24  ar
    20    14    15  ar
    21    23    14  ar
    22    15    16  ar
    23    17    18   1
    24    17    19   2
    25    18    20  ar
    26    18    31  ar
    27    20    21  ar
    28    22    23   1
    29    22    25   1
    30    23    24  ar
    31    24    26   1
    32    25    26  ar
    33    25    30  ar
    34    26    27  ar
    35    27    28  ar
    36    28    29  ar
    37    29    30  ar
    38    31    32  ar
    39    31    34   1
    40    33    34   2
    41     1    35   1
    42     3    36   1
    43     4    37   1
    44     5    38   1
    45     8    39   1
    46    12    40   1
    47    14    41   1
    48    15    42   1
    49    16    43   1
    50    20    44   1
    51    21    45   1
    52    22    46   1
    53    27    47   1
    54    28    48   1
    55    29    49   1
    56    30    50   1
    57    33    51   1
    58    34    52   1
@<TRIPOS>SUBSTRUCTURE
     1  YKI      1

