@<TRIPOS>MOLECULE
2yki_ligand_043
    52    58
SMALL
GAST_HUCK
****
This file was generated by PARSER (from files_GN.cpp)

@<TRIPOS>ATOM
      1 C1          6.5261   12.0557   24.8141 C.ar        1 YKI      -0.0069
      2 N1          7.4197   11.6527   23.8662 N.ar        1 YKI      -0.3145
      3 C2          7.3000   10.4787   23.1843 C.ar        1 YKI       0.0318
      4 N2          5.8298    8.4528   23.0084 N.pl3       1 YKI      -0.2421
      5 C3          5.4082   11.2516   25.1225 C.ar        1 YKI      -0.0358
      6 N3          4.3441    9.0676   24.5269 N.2         1 YKI      -0.2951
      7 C4          4.6997    8.1031   23.6523 C.2         1 YKI       0.1441
      8 N4          2.7741    2.9786   25.4890 N.am        1 YKI      -0.2584
      9 C5          5.2731   10.0319   24.4354 C.ar        1 YKI       0.0509
     10 N5         -1.2490    1.0218   27.6763 N.ar        1 YKI      -0.2805
     11 C6          6.2102    9.6453   23.4797 C.ar        1 YKI       0.1092
     12 N6         -2.4951    1.1984   25.5835 N.pl3       1 YKI      -0.2631
     13 C7          3.9881    6.9175   23.4210 C.ar        1 YKI       0.0361
     14 C8          2.6041    4.5186   22.7945 C.ar        1 YKI      -0.0512
     15 C9          2.3686    5.6858   22.0460 C.ar        1 YKI      -0.0623
     16 C10         3.0602    6.8756   22.3498 C.ar        1 YKI      -0.0499
     17 C11         2.1284    1.8308   25.3197 C.2         1 YKI       0.2116
     18 C12         1.0164    1.5593   26.0928 C.ar        1 YKI       0.0544
     19 O13         2.4341    1.0473   24.4284 O.2         1 YKI      -0.3825
     20 C14         1.1266    1.3821   27.4961 C.ar        1 YKI      -0.0315
     21 C15        -0.0236    1.0956   28.2641 C.ar        1 YKI       0.0006
     22 C16         3.9015    3.4316   24.7290 C.3         1 YKI       0.1112
     23 C17         3.5260    4.5586   23.8570 C.ar        1 YKI       0.0062
     24 C18         4.2054    5.7414   24.1865 C.ar        1 YKI       0.0013
     25 C19         4.8788    4.0885   25.6067 C.ar        1 YKI       0.0020
     26 C20         5.0275    5.4443   25.2854 C.ar        1 YKI      -0.0129
     27 C21         5.8820    6.2533   26.0605 C.ar        1 YKI      -0.0610
     28 C22         6.5832    5.6883   27.1457 C.ar        1 YKI      -0.0680
     29 C23         6.4500    4.3167   27.4459 C.ar        1 YKI      -0.0680
     30 C24         5.5942    3.5067   26.6734 C.ar        1 YKI      -0.0553
     31 C25        -0.2780    1.4761   25.5308 C.ar        1 YKI       0.0172
     32 C26        -1.3855    1.2111   26.3412 C.ar        1 YKI       0.1409
     33 C27        -2.1532    1.4644   24.3105 C.2         1 YKI       0.0293
     34 C28        -0.7752    1.6484   24.2426 C.2         1 YKI      -0.0523
     35 H1          6.6712   12.9439   25.2982 H           1 YKI       0.0705
     36 H2          7.9934   10.2119   22.4846 H           1 YKI       0.0763
     37 H3          6.2832    7.9428   22.3195 H           1 YKI       0.2328
     38 H4          4.7259   11.5432   25.8238 H           1 YKI       0.0643
     39 H5          2.4155    3.5931   26.1486 H           1 YKI       0.1910
     40 H6         -3.3955    1.0345   25.9033 H           1 YKI       0.2313
     41 H7          2.1110    3.6538   22.5667 H           1 YKI       0.0605
     42 H8          1.7027    5.6632   21.2681 H           1 YKI       0.0605
     43 H9          2.8853    7.7060   21.7773 H           1 YKI       0.0619
     44 H10         2.0355    1.4416   27.9624 H           1 YKI       0.0656
     45 H11         0.0557    0.9373   29.2699 H           1 YKI       0.0758
     46 H12         4.3974    2.6498   24.1443 H           1 YKI       0.0919
     47 H13         5.9931    7.2429   25.8522 H           1 YKI       0.0603
     48 H14         7.1942    6.2772   27.7159 H           1 YKI       0.0563
     49 H15         6.9735    3.9072   28.2250 H           1 YKI       0.0597
     50 H16         5.4858    2.5128   26.8941 H           1 YKI       0.0566
     51 H17        -2.7984    1.5233   23.5212 H           1 YKI       0.0983
     52 H18        -0.2386    1.8787   23.4056 H           1 YKI       0.0310
@<TRIPOS>BOND
     1     1     2  ar
     2     5     1  ar
     3     3     2  ar
     4    11     3  ar
     5     7     4   1
     6     4    11   1
     7     9     5  ar
     8     7     6   2
     9     6     9   1
    10    13     7   1
    11     8    17  am
    12    22     8   1
    13     9    11  ar
    14    21    10  ar
    15    10    32  ar
    16    32    12   1
    17    12    33   1
    18    16    13  ar
    19    13    24  ar
    20    14    15  ar
    21    23    14  ar
    22    15    16  ar
    23    17    18   1
    24    17    19   2
    25    18    20  ar
    26    18    31  ar
    27    20    21  ar
    28    22    23   1
    29    22    25   1
    30    23    24  ar
    31    24    26   1
    32    25    26  ar
    33    25    30  ar
    34    26    27  ar
    35    27    28  ar
    36    28    29  ar
    37    29    30  ar
    38    31    32  ar
    39    31    34   1
    40    33    34   2
    41     1    35   1
    42     3    36   1
    43     4    37   1
    44     5    38   1
    45     8    39   1
    46    12    40   1
    47    14    41   1
    48    15    42   1
    49    16    43   1
    50    20    44   1
    51    21    45   1
    52    22    46   1
    53    27    47   1
    54    28    48   1
    55    29    49   1
    56    30    50   1
    57    33    51   1
    58    34    52   1
@<TRIPOS>SUBSTRUCTURE
     1  YKI      1

