@<TRIPOS>MOLECULE
2yki_ligand_007
    52    58
SMALL
GAST_HUCK
****
This file was generated by PARSER (from files_GN.cpp)

@<TRIPOS>ATOM
      1 C1          1.1885   15.1660   24.3495 C.ar        1 YKI      -0.0069
      2 N1          2.2379   15.2403   25.2177 N.ar        1 YKI      -0.3145
      3 C2          3.2282   14.3094   25.2709 C.ar        1 YKI       0.0318
      4 N2          3.9286   12.1478   24.2275 N.pl3       1 YKI      -0.2421
      5 C3          1.0937   14.0900   23.4416 C.ar        1 YKI      -0.0358
      6 N3          2.2592   11.9766   22.7879 N.2         1 YKI      -0.2951
      7 C4          3.3704   11.3847   23.2708 C.2         1 YKI       0.1441
      8 N4          2.7842    5.8895   21.4982 N.am        1 YKI      -0.2584
      9 C5          2.0978   13.1095   23.4903 C.ar        1 YKI       0.0509
     10 N5          1.9956    3.0862   17.4270 N.ar        1 YKI      -0.2805
     11 C6          3.1512   13.2168   24.3954 C.ar        1 YKI       0.1092
     12 N6          2.7913    5.1981   16.5200 N.pl3       1 YKI      -0.2631
     13 C7          3.9121   10.1687   22.8352 C.ar        1 YKI       0.0361
     14 C8          5.1718    7.7747   21.9764 C.ar        1 YKI      -0.0512
     15 C9          5.8468    9.0028   21.8743 C.ar        1 YKI      -0.0623
     16 C10         5.2275   10.1861   22.3115 C.ar        1 YKI      -0.0499
     17 C11         3.1066    4.6446   21.1720 C.2         1 YKI       0.2116
     18 C12         2.7649    4.1366   19.9255 C.ar        1 YKI       0.0544
     19 O13         3.6500    3.9044   21.9830 O.2         1 YKI      -0.3825
     20 C14         2.2342    2.8248   19.8048 C.ar        1 YKI      -0.0315
     21 C15         1.8414    2.3283   18.5438 C.ar        1 YKI       0.0006
     22 C16         3.0705    6.5461   22.7374 C.3         1 YKI       0.1112
     23 C17         3.8736    7.7528   22.5138 C.ar        1 YKI       0.0062
     24 C18         3.2295    8.9268   22.9378 C.ar        1 YKI       0.0013
     25 C19         1.8681    7.1454   23.3230 C.ar        1 YKI       0.0020
     26 C20         1.9765    8.5398   23.4479 C.ar        1 YKI      -0.0129
     27 C21         0.9180    9.2610   24.0432 C.ar        1 YKI      -0.0610
     28 C22        -0.2380    8.5785   24.4754 C.ar        1 YKI      -0.0680
     29 C23        -0.3336    7.1793   24.3371 C.ar        1 YKI      -0.0680
     30 C24         0.7258    6.4522   23.7656 C.ar        1 YKI      -0.0553
     31 C25         2.9216    4.8807   18.7287 C.ar        1 YKI       0.0172
     32 C26         2.5278    4.3285   17.5062 C.ar        1 YKI       0.1409
     33 C27         3.3615    6.2944   17.0466 C.2         1 YKI       0.0293
     34 C28         3.4579    6.1313   18.4259 C.2         1 YKI      -0.0523
     35 H1          0.4714   15.8921   24.3675 H           1 YKI       0.0705
     36 H2          3.9943   14.3979   25.9397 H           1 YKI       0.0763
     37 H3          4.7366   11.9440   24.7252 H           1 YKI       0.2328
     38 H4          0.3172   14.0146   22.7829 H           1 YKI       0.0643
     39 H5          2.2997    6.4105   20.8364 H           1 YKI       0.1910
     40 H6          2.6175    5.0476   15.5772 H           1 YKI       0.2313
     41 H7          5.6188    6.9073   21.6741 H           1 YKI       0.0605
     42 H8          6.7937    9.0394   21.4920 H           1 YKI       0.0605
     43 H9          5.7494   11.0643   22.2356 H           1 YKI       0.0619
     44 H10         2.1029    2.2324   20.6299 H           1 YKI       0.0656
     45 H11         1.4351    1.3949   18.4635 H           1 YKI       0.0758
     46 H12         3.5627    5.9079   23.4782 H           1 YKI       0.0919
     47 H13         0.9713   10.2668   24.1826 H           1 YKI       0.0603
     48 H14        -1.0114    9.0997   24.8952 H           1 YKI       0.0563
     49 H15        -1.1732    6.6900   24.6538 H           1 YKI       0.0597
     50 H16         0.6659    5.4352   23.6740 H           1 YKI       0.0566
     51 H17         3.6863    7.1051   16.5174 H           1 YKI       0.0983
     52 H18         3.8726    6.8010   19.0762 H           1 YKI       0.0310
@<TRIPOS>BOND
     1     1     2  ar
     2     5     1  ar
     3     3     2  ar
     4    11     3  ar
     5     7     4   1
     6     4    11   1
     7     9     5  ar
     8     7     6   2
     9     6     9   1
    10    13     7   1
    11     8    17  am
    12    22     8   1
    13     9    11  ar
    14    21    10  ar
    15    10    32  ar
    16    32    12   1
    17    12    33   1
    18    16    13  ar
    19    13    24  ar
    20    14    15  ar
    21    23    14  ar
    22    15    16  ar
    23    17    18   1
    24    17    19   2
    25    18    20  ar
    26    18    31  ar
    27    20    21  ar
    28    22    23   1
    29    22    25   1
    30    23    24  ar
    31    24    26   1
    32    25    26  ar
    33    25    30  ar
    34    26    27  ar
    35    27    28  ar
    36    28    29  ar
    37    29    30  ar
    38    31    32  ar
    39    31    34   1
    40    33    34   2
    41     1    35   1
    42     3    36   1
    43     4    37   1
    44     5    38   1
    45     8    39   1
    46    12    40   1
    47    14    41   1
    48    15    42   1
    49    16    43   1
    50    20    44   1
    51    21    45   1
    52    22    46   1
    53    27    47   1
    54    28    48   1
    55    29    49   1
    56    30    50   1
    57    33    51   1
    58    34    52   1
@<TRIPOS>SUBSTRUCTURE
     1  YKI      1

