@<TRIPOS>MOLECULE
2yki_ligand_037
    52    58
SMALL
GAST_HUCK
****
This file was generated by PARSER (from files_GN.cpp)

@<TRIPOS>ATOM
      1 C1          0.4302   13.2353   21.4617 C.ar        1 YKI      -0.0069
      2 N1         -0.8260   12.8414   21.1061 N.ar        1 YKI      -0.3145
      3 C2         -1.5318   11.9015   21.7958 C.ar        1 YKI       0.0318
      4 N2         -1.3435   10.3793   23.7753 N.pl3       1 YKI      -0.2421
      5 C3          1.0588   12.6762   22.5945 C.ar        1 YKI      -0.0358
      6 N3          0.6813   11.0030   24.4118 N.2         1 YKI      -0.2951
      7 C4         -0.3646   10.1931   24.6764 C.2         1 YKI       0.1441
      8 N4          1.0026    5.0073   27.0377 N.am        1 YKI      -0.2584
      9 C5          0.3470   11.7044   23.3170 C.ar        1 YKI       0.0509
     10 N5          4.7912    3.5246   29.9648 N.ar        1 YKI      -0.2805
     11 C6         -0.9309   11.3163   22.9201 C.ar        1 YKI       0.1092
     12 N6          4.7442    1.7149   28.3224 N.pl3       1 YKI      -0.2631
     13 C7         -0.4488    9.2672   25.7197 C.ar        1 YKI       0.0361
     14 C8         -0.8850    7.4084   27.8129 C.ar        1 YKI      -0.0512
     15 C9         -1.1621    8.7745   28.0090 C.ar        1 YKI      -0.0623
     16 C10        -0.9438    9.7003   26.9705 C.ar        1 YKI      -0.0499
     17 C11         2.1906    5.5106   27.3523 C.2         1 YKI       0.2116
     18 C12         3.0173    4.8292   28.2208 C.ar        1 YKI       0.0544
     19 O13         2.5401    6.6209   26.9708 O.2         1 YKI      -0.3825
     20 C14         3.4572    5.4512   29.4146 C.ar        1 YKI      -0.0315
     21 C15         4.3452    4.7725   30.2750 C.ar        1 YKI       0.0006
     22 C16        -0.0053    5.5991   26.1986 C.3         1 YKI       0.1112
     23 C17        -0.3842    6.9788   26.5722 C.ar        1 YKI       0.0062
     24 C18        -0.1443    7.8957   25.5376 C.ar        1 YKI       0.0013
     25 C19         0.4679    5.8274   24.8235 C.ar        1 YKI       0.0020
     26 C20         0.4253    7.1845   24.4734 C.ar        1 YKI      -0.0129
     27 C21         1.0148    7.6169   23.2669 C.ar        1 YKI      -0.0610
     28 C22         1.6160    6.6667   22.4165 C.ar        1 YKI      -0.0680
     29 C23         1.5794    5.2947   22.7360 C.ar        1 YKI      -0.0680
     30 C24         1.0030    4.8667   23.9458 C.ar        1 YKI      -0.0553
     31 C25         3.4919    3.5243   27.9469 C.ar        1 YKI       0.0172
     32 C26         4.3842    2.9065   28.8284 C.ar        1 YKI       0.1409
     33 C27         4.1191    1.5324   27.1466 C.2         1 YKI       0.0293
     34 C28         3.3243    2.6436   26.8831 C.2         1 YKI      -0.0523
     35 H1          0.9098   13.9446   20.9075 H           1 YKI       0.0705
     36 H2         -2.4692   11.6256   21.4997 H           1 YKI       0.0763
     37 H3         -2.1990    9.9222   23.7558 H           1 YKI       0.2328
     38 H4          1.9991   12.9610   22.8759 H           1 YKI       0.0643
     39 H5          0.7778    4.1498   27.4315 H           1 YKI       0.1910
     40 H6          5.3808    1.0990   28.7199 H           1 YKI       0.2313
     41 H7         -1.0248    6.7375   28.5686 H           1 YKI       0.0605
     42 H8         -1.5225    9.1001   28.9065 H           1 YKI       0.0605
     43 H9         -1.1720   10.6863   27.1278 H           1 YKI       0.0619
     44 H10         3.1352    6.3911   29.6661 H           1 YKI       0.0656
     45 H11         4.6697    5.2268   31.1301 H           1 YKI       0.0758
     46 H12        -0.8911    4.9567   26.1862 H           1 YKI       0.0919
     47 H13         1.0634    8.6053   23.0220 H           1 YKI       0.0603
     48 H14         2.1014    6.9713   21.5730 H           1 YKI       0.0563
     49 H15         2.0088    4.6128   22.1084 H           1 YKI       0.0597
     50 H16         1.0135    3.8788   24.2043 H           1 YKI       0.0566
     51 H17         4.2350    0.7239   26.5322 H           1 YKI       0.0983
     52 H18         2.7616    2.7946   26.0444 H           1 YKI       0.0310
@<TRIPOS>BOND
     1     1     2  ar
     2     5     1  ar
     3     3     2  ar
     4    11     3  ar
     5     7     4   1
     6     4    11   1
     7     9     5  ar
     8     7     6   2
     9     6     9   1
    10    13     7   1
    11     8    17  am
    12    22     8   1
    13     9    11  ar
    14    21    10  ar
    15    10    32  ar
    16    32    12   1
    17    12    33   1
    18    16    13  ar
    19    13    24  ar
    20    14    15  ar
    21    23    14  ar
    22    15    16  ar
    23    17    18   1
    24    17    19   2
    25    18    20  ar
    26    18    31  ar
    27    20    21  ar
    28    22    23   1
    29    22    25   1
    30    23    24  ar
    31    24    26   1
    32    25    26  ar
    33    25    30  ar
    34    26    27  ar
    35    27    28  ar
    36    28    29  ar
    37    29    30  ar
    38    31    32  ar
    39    31    34   1
    40    33    34   2
    41     1    35   1
    42     3    36   1
    43     4    37   1
    44     5    38   1
    45     8    39   1
    46    12    40   1
    47    14    41   1
    48    15    42   1
    49    16    43   1
    50    20    44   1
    51    21    45   1
    52    22    46   1
    53    27    47   1
    54    28    48   1
    55    29    49   1
    56    30    50   1
    57    33    51   1
    58    34    52   1
@<TRIPOS>SUBSTRUCTURE
     1  YKI      1

