@<TRIPOS>MOLECULE
2yki_ligand_063
    52    58
SMALL
GAST_HUCK
****
This file was generated by PARSER (from files_GN.cpp)

@<TRIPOS>ATOM
      1 C1         -2.6335   10.9033   26.3079 C.ar        1 YKI      -0.0069
      2 N1         -2.2990   10.3288   27.5001 N.ar        1 YKI      -0.3145
      3 C2         -1.4026    9.3078   27.6088 C.ar        1 YKI       0.0318
      4 N2          0.0478    7.8190   26.1848 N.pl3       1 YKI      -0.2421
      5 C3         -2.0491   10.4460   25.1121 C.ar        1 YKI      -0.0358
      6 N3         -0.4748    8.7241   24.2406 N.2         1 YKI      -0.2951
      7 C4          0.2544    7.7690   24.8505 C.2         1 YKI       0.1441
      8 N4          5.2201    5.7528   22.7290 N.am        1 YKI      -0.2584
      9 C5         -1.1332    9.3878   25.2023 C.ar        1 YKI       0.0509
     10 N5          8.8954    2.7742   24.3861 N.ar        1 YKI      -0.2805
     11 C6         -0.8104    8.8144   26.4320 C.ar        1 YKI       0.1092
     12 N6          7.2316    2.3689   26.1218 N.pl3       1 YKI      -0.2631
     13 C7          0.9888    6.7869   24.1622 C.ar        1 YKI       0.0361
     14 C8          2.3181    4.7212   22.7320 C.ar        1 YKI      -0.0512
     15 C9          1.1267    4.4453   23.4217 C.ar        1 YKI      -0.0623
     16 C10         0.4734    5.4702   24.1338 C.ar        1 YKI      -0.0499
     17 C11         5.7488    4.6129   22.2870 C.2         1 YKI       0.2116
     18 C12         6.7823    4.0015   22.9799 C.ar        1 YKI       0.0544
     19 O13         5.3132    4.0439   21.2824 O.2         1 YKI      -0.3825
     20 C14         8.0868    3.9004   22.4221 C.ar        1 YKI      -0.0315
     21 C15         9.1300    3.2912   23.1528 C.ar        1 YKI       0.0006
     22 C16         4.1057    6.4473   22.1400 C.3         1 YKI       0.1112
     23 C17         2.8437    6.0209   22.7672 C.ar        1 YKI       0.0062
     24 C18         2.1888    7.0581   23.4539 C.ar        1 YKI       0.0013
     25 C19         4.0834    7.8737   22.5040 C.ar        1 YKI       0.0020
     26 C20         2.9630    8.2120   23.2823 C.ar        1 YKI      -0.0129
     27 C21         2.8090    9.5347   23.7466 C.ar        1 YKI      -0.0610
     28 C22         3.7649   10.5073   23.3983 C.ar        1 YKI      -0.0680
     29 C23         4.8828   10.1620   22.6124 C.ar        1 YKI      -0.0680
     30 C24         5.0441    8.8399   22.1604 C.ar        1 YKI      -0.0553
     31 C25         6.5925    3.4493   24.2683 C.ar        1 YKI       0.0172
     32 C26         7.6589    2.8424   24.9408 C.ar        1 YKI       0.1409
     33 C27         5.9301    2.6693   26.2593 C.2         1 YKI       0.0293
     34 C28         5.4998    3.3428   25.1191 C.2         1 YKI      -0.0523
     35 H1         -3.3087   11.6675   26.2902 H           1 YKI       0.0705
     36 H2         -1.1886    8.9034   28.5210 H           1 YKI       0.0763
     37 H3          0.4390    7.2248   26.8458 H           1 YKI       0.2328
     38 H4         -2.2968   10.8497   24.2076 H           1 YKI       0.0643
     39 H5          5.5899    6.1340   23.5492 H           1 YKI       0.1910
     40 H6          7.7730    1.8858   26.7677 H           1 YKI       0.2313
     41 H7          2.8054    3.9801   22.2195 H           1 YKI       0.0605
     42 H8          0.7384    3.4996   23.3971 H           1 YKI       0.0605
     43 H9         -0.3994    5.2391   24.6197 H           1 YKI       0.0619
     44 H10         8.2949    4.3085   21.5136 H           1 YKI       0.0656
     45 H11        10.0759    3.2473   22.7657 H           1 YKI       0.0758
     46 H12         4.0401    6.3435   21.0478 H           1 YKI       0.0919
     47 H13         2.0243    9.7997   24.3372 H           1 YKI       0.0603
     48 H14         3.6578   11.4692   23.7238 H           1 YKI       0.0563
     49 H15         5.5847   10.8670   22.3724 H           1 YKI       0.0597
     50 H16         5.8534    8.5841   21.5889 H           1 YKI       0.0566
     51 H17         5.3539    2.4256   27.0660 H           1 YKI       0.0983
     52 H18         4.5521    3.6838   24.9333 H           1 YKI       0.0310
@<TRIPOS>BOND
     1     1     2  ar
     2     5     1  ar
     3     3     2  ar
     4    11     3  ar
     5     7     4   1
     6     4    11   1
     7     9     5  ar
     8     7     6   2
     9     6     9   1
    10    13     7   1
    11     8    17  am
    12    22     8   1
    13     9    11  ar
    14    21    10  ar
    15    10    32  ar
    16    32    12   1
    17    12    33   1
    18    16    13  ar
    19    13    24  ar
    20    14    15  ar
    21    23    14  ar
    22    15    16  ar
    23    17    18   1
    24    17    19   2
    25    18    20  ar
    26    18    31  ar
    27    20    21  ar
    28    22    23   1
    29    22    25   1
    30    23    24  ar
    31    24    26   1
    32    25    26  ar
    33    25    30  ar
    34    26    27  ar
    35    27    28  ar
    36    28    29  ar
    37    29    30  ar
    38    31    32  ar
    39    31    34   1
    40    33    34   2
    41     1    35   1
    42     3    36   1
    43     4    37   1
    44     5    38   1
    45     8    39   1
    46    12    40   1
    47    14    41   1
    48    15    42   1
    49    16    43   1
    50    20    44   1
    51    21    45   1
    52    22    46   1
    53    27    47   1
    54    28    48   1
    55    29    49   1
    56    30    50   1
    57    33    51   1
    58    34    52   1
@<TRIPOS>SUBSTRUCTURE
     1  YKI      1

