@<TRIPOS>MOLECULE
2yki_ligand_062
    52    58
SMALL
GAST_HUCK
****
This file was generated by PARSER (from files_GN.cpp)

@<TRIPOS>ATOM
      1 C1         12.3432    2.0410   26.7460 C.ar        1 YKI      -0.0069
      2 N1         11.3472    1.2798   26.2073 N.ar        1 YKI      -0.3145
      3 C2         10.1683    1.0380   26.8438 C.ar        1 YKI       0.0318
      4 N2          8.9583    1.5497   28.9837 N.pl3       1 YKI      -0.2421
      5 C3         12.1772    2.6253   28.0193 C.ar        1 YKI      -0.0358
      6 N3         10.5328    2.8079   29.8900 N.2         1 YKI      -0.2951
      7 C4          9.2967    2.2911   30.0547 C.2         1 YKI       0.1441
      8 N4          5.0066    4.9970   32.8670 N.am        1 YKI      -0.2584
      9 C5         10.9666    2.3892   28.6908 C.ar        1 YKI       0.0509
     10 N5          0.0660    5.0877   33.5091 N.ar        1 YKI      -0.2805
     11 C6          9.9734    1.6012   28.1158 C.ar        1 YKI       0.1092
     12 N6          0.3751    2.8235   34.3581 N.pl3       1 YKI      -0.2631
     13 C7          8.5072    2.4639   31.2005 C.ar        1 YKI       0.0361
     14 C8          6.9684    2.7090   33.5800 C.ar        1 YKI      -0.0512
     15 C9          7.6313    1.5042   33.2857 C.ar        1 YKI      -0.0623
     16 C10         8.3878    1.3806   32.1039 C.ar        1 YKI      -0.0499
     17 C11         4.2200    5.4159   33.8501 C.2         1 YKI       0.2116
     18 C12         2.8548    5.2923   33.7228 C.ar        1 YKI       0.0544
     19 O13         4.6484    5.9583   34.8601 O.2         1 YKI      -0.3825
     20 C14         2.0788    6.3771   33.2469 C.ar        1 YKI      -0.0315
     21 C15         0.6758    6.2471   33.1450 C.ar        1 YKI       0.0006
     22 C16         6.4357    5.1020   32.8192 C.3         1 YKI       0.1112
     23 C17         7.0681    3.7820   32.6744 C.ar        1 YKI       0.0062
     24 C18         7.8293    3.6750   31.4976 C.ar        1 YKI       0.0013
     25 C19         6.8960    5.7432   31.5780 C.ar        1 YKI       0.0020
     26 C20         7.7204    4.8974   30.8207 C.ar        1 YKI      -0.0129
     27 C21         8.2627    5.3570   29.5991 C.ar        1 YKI      -0.0610
     28 C22         7.9694    6.6636   29.1572 C.ar        1 YKI      -0.0680
     29 C23         7.1352    7.5024   29.9209 C.ar        1 YKI      -0.0680
     30 C24         6.5924    7.0440   31.1349 C.ar        1 YKI      -0.0553
     31 C25         2.1785    4.1067   34.0828 C.ar        1 YKI       0.0172
     32 C26         0.7890    4.0372   33.9665 C.ar        1 YKI       0.1409
     33 C27         1.4450    2.0989   34.7300 C.2         1 YKI       0.0293
     34 C28         2.5918    2.8737   34.5730 C.2         1 YKI      -0.0523
     35 H1         13.2087    2.1851   26.2232 H           1 YKI       0.0705
     36 H2          9.4494    0.4642   26.4023 H           1 YKI       0.0763
     37 H3          8.1236    1.0707   28.8660 H           1 YKI       0.2328
     38 H4         12.9096    3.1992   28.4400 H           1 YKI       0.0643
     39 H5          4.5775    4.5919   32.0958 H           1 YKI       0.1910
     40 H6         -0.5483    2.5240   34.3697 H           1 YKI       0.2313
     41 H7          6.4179    2.8011   34.4356 H           1 YKI       0.0605
     42 H8          7.5632    0.7176   33.9343 H           1 YKI       0.0605
     43 H9          8.8663    0.4938   31.9195 H           1 YKI       0.0619
     44 H10         2.5226    7.2566   32.9667 H           1 YKI       0.0656
     45 H11         0.1106    7.0184   32.7866 H           1 YKI       0.0758
     46 H12         6.8634    5.6229   33.6830 H           1 YKI       0.0919
     47 H13         8.8601    4.7617   29.0281 H           1 YKI       0.0603
     48 H14         8.3573    7.0079   28.2762 H           1 YKI       0.0563
     49 H15         6.9228    8.4453   29.5960 H           1 YKI       0.0597
     50 H16         5.9908    7.6515   31.6877 H           1 YKI       0.0566
     51 H17         1.4157    1.1370   35.0712 H           1 YKI       0.0983
     52 H18         3.5498    2.5891   34.7782 H           1 YKI       0.0310
@<TRIPOS>BOND
     1     1     2  ar
     2     5     1  ar
     3     3     2  ar
     4    11     3  ar
     5     7     4   1
     6     4    11   1
     7     9     5  ar
     8     7     6   2
     9     6     9   1
    10    13     7   1
    11     8    17  am
    12    22     8   1
    13     9    11  ar
    14    21    10  ar
    15    10    32  ar
    16    32    12   1
    17    12    33   1
    18    16    13  ar
    19    13    24  ar
    20    14    15  ar
    21    23    14  ar
    22    15    16  ar
    23    17    18   1
    24    17    19   2
    25    18    20  ar
    26    18    31  ar
    27    20    21  ar
    28    22    23   1
    29    22    25   1
    30    23    24  ar
    31    24    26   1
    32    25    26  ar
    33    25    30  ar
    34    26    27  ar
    35    27    28  ar
    36    28    29  ar
    37    29    30  ar
    38    31    32  ar
    39    31    34   1
    40    33    34   2
    41     1    35   1
    42     3    36   1
    43     4    37   1
    44     5    38   1
    45     8    39   1
    46    12    40   1
    47    14    41   1
    48    15    42   1
    49    16    43   1
    50    20    44   1
    51    21    45   1
    52    22    46   1
    53    27    47   1
    54    28    48   1
    55    29    49   1
    56    30    50   1
    57    33    51   1
    58    34    52   1
@<TRIPOS>SUBSTRUCTURE
     1  YKI      1

