@<TRIPOS>MOLECULE
2yki_ligand_042
    52    58
SMALL
GAST_HUCK
****
This file was generated by PARSER (from files_GN.cpp)

@<TRIPOS>ATOM
      1 C1          2.6364   11.5250   24.7468 C.ar        1 YKI      -0.0069
      2 N1          1.6731   11.6156   23.7859 N.ar        1 YKI      -0.3145
      3 C2          0.7611   10.6297   23.5509 C.ar        1 YKI       0.0318
      4 N2          0.0880    8.3454   24.3734 N.pl3       1 YKI      -0.2421
      5 C3          2.7184   10.3785   25.5624 C.ar        1 YKI      -0.0358
      6 N3          1.6150    8.1887   25.9651 N.2         1 YKI      -0.2951
      7 C4          0.5796    7.5729   25.3617 C.2         1 YKI       0.1441
      8 N4          1.2216    1.8040   25.5368 N.am        1 YKI      -0.2584
      9 C5          1.7811    9.3583   25.3377 C.ar        1 YKI       0.0509
     10 N5          4.3321   -1.2217   27.9292 N.ar        1 YKI      -0.2805
     11 C6          0.8154    9.4678   24.3386 C.ar        1 YKI       0.1092
     12 N6          2.9286   -0.6116   29.8367 N.pl3       1 YKI      -0.2631
     13 C7          0.0944    6.3259   25.7696 C.ar        1 YKI       0.0361
     14 C8         -0.7759    3.8326   26.8122 C.ar        1 YKI      -0.0512
     15 C9         -1.1008    5.0296   27.4755 C.ar        1 YKI      -0.0623
     16 C10        -0.6650    6.2662   26.9638 C.ar        1 YKI      -0.0499
     17 C11         2.4547    1.9711   25.9998 C.2         1 YKI       0.2116
     18 C12         3.0750    0.9230   26.6337 C.ar        1 YKI       0.0544
     19 O13         3.1071    2.9935   25.8075 O.2         1 YKI      -0.3825
     20 C14         4.0834    0.1750   25.9828 C.ar        1 YKI      -0.0315
     21 C15         4.6868   -0.9119   26.6508 C.ar        1 YKI       0.0006
     22 C16         0.4161    2.7477   24.8092 C.3         1 YKI       0.1112
     23 C17        -0.0180    3.8929   25.6273 C.ar        1 YKI       0.0062
     24 C18         0.4153    5.1183   25.0968 C.ar        1 YKI       0.0013
     25 C19         1.1145    3.4531   23.7186 C.ar        1 YKI       0.0020
     26 C20         1.1332    4.8413   23.9231 C.ar        1 YKI      -0.0129
     27 C21         1.8292    5.6731   23.0196 C.ar        1 YKI      -0.0610
     28 C22         2.4719    5.1022   21.9006 C.ar        1 YKI      -0.0680
     29 C23         2.4320    3.7085   21.6941 C.ar        1 YKI      -0.0680
     30 C24         1.7549    2.8757   22.6051 C.ar        1 YKI      -0.0553
     31 C25         2.7362    0.5711   27.9600 C.ar        1 YKI       0.0172
     32 C26         3.3862   -0.4979   28.5793 C.ar        1 YKI       0.1409
     33 C27         2.0104    0.3436   30.0587 C.2         1 YKI       0.0293
     34 C28         1.8558    1.0974   28.8978 C.2         1 YKI      -0.0523
     35 H1          3.2952   12.2960   24.8791 H           1 YKI       0.0705
     36 H2          0.0470   10.7480   22.8314 H           1 YKI       0.0763
     37 H3         -0.6659    8.1255   23.8034 H           1 YKI       0.2328
     38 H4          3.4272   10.2923   26.2942 H           1 YKI       0.0643
     39 H5          0.8190    0.9344   25.6955 H           1 YKI       0.1910
     40 H6          3.2265   -1.2681   30.4838 H           1 YKI       0.2313
     41 H7         -1.0789    2.9352   27.1942 H           1 YKI       0.0605
     42 H8         -1.6422    5.0039   28.3422 H           1 YKI       0.0605
     43 H9         -0.9028    7.1208   27.4758 H           1 YKI       0.0619
     44 H10         4.3795    0.4057   25.0289 H           1 YKI       0.0656
     45 H11         5.4061   -1.4662   26.1837 H           1 YKI       0.0758
     46 H12        -0.4625    2.2325   24.4137 H           1 YKI       0.0919
     47 H13         1.8854    6.6835   23.1576 H           1 YKI       0.0603
     48 H14         2.9756    5.6999   21.2422 H           1 YKI       0.0563
     49 H15         2.9036    3.3007   20.8829 H           1 YKI       0.0597
     50 H16         1.7450    1.8622   22.4690 H           1 YKI       0.0566
     51 H17         1.5136    0.4918   30.9369 H           1 YKI       0.0983
     52 H18         1.2299    1.8944   28.7702 H           1 YKI       0.0310
@<TRIPOS>BOND
     1     1     2  ar
     2     5     1  ar
     3     3     2  ar
     4    11     3  ar
     5     7     4   1
     6     4    11   1
     7     9     5  ar
     8     7     6   2
     9     6     9   1
    10    13     7   1
    11     8    17  am
    12    22     8   1
    13     9    11  ar
    14    21    10  ar
    15    10    32  ar
    16    32    12   1
    17    12    33   1
    18    16    13  ar
    19    13    24  ar
    20    14    15  ar
    21    23    14  ar
    22    15    16  ar
    23    17    18   1
    24    17    19   2
    25    18    20  ar
    26    18    31  ar
    27    20    21  ar
    28    22    23   1
    29    22    25   1
    30    23    24  ar
    31    24    26   1
    32    25    26  ar
    33    25    30  ar
    34    26    27  ar
    35    27    28  ar
    36    28    29  ar
    37    29    30  ar
    38    31    32  ar
    39    31    34   1
    40    33    34   2
    41     1    35   1
    42     3    36   1
    43     4    37   1
    44     5    38   1
    45     8    39   1
    46    12    40   1
    47    14    41   1
    48    15    42   1
    49    16    43   1
    50    20    44   1
    51    21    45   1
    52    22    46   1
    53    27    47   1
    54    28    48   1
    55    29    49   1
    56    30    50   1
    57    33    51   1
    58    34    52   1
@<TRIPOS>SUBSTRUCTURE
     1  YKI      1

