@<TRIPOS>MOLECULE
2yki_ligand_013
    52    58
SMALL
GAST_HUCK
****
This file was generated by PARSER (from files_GN.cpp)

@<TRIPOS>ATOM
      1 C1          1.6708    7.8495   31.3369 C.ar        1 YKI      -0.0069
      2 N1          1.2707    6.6598   30.7965 N.ar        1 YKI      -0.3145
      3 C2          1.4077    6.3607   29.4763 C.ar        1 YKI       0.0318
      4 N2          2.3101    7.3150   27.3353 N.pl3       1 YKI      -0.2421
      5 C3          2.2672    8.8309   30.5210 C.ar        1 YKI      -0.0358
      6 N3          2.9643    9.2571   28.1618 N.2         1 YKI      -0.2951
      7 C4          2.8998    8.4920   27.0530 C.2         1 YKI       0.1441
      8 N4          4.9811    6.8553   21.8081 N.am        1 YKI      -0.2584
      9 C5          2.4310    8.5319   29.1581 C.ar        1 YKI       0.0509
     10 N5          2.9859    4.3592   17.9385 N.ar        1 YKI      -0.2805
     11 C6          2.0114    7.3125   28.6380 C.ar        1 YKI       0.1092
     12 N6          3.0761    6.5325   16.7724 N.pl3       1 YKI      -0.2631
     13 C7          3.3207    8.8874   25.7704 C.ar        1 YKI       0.0361
     14 C8          3.9263    9.6619   23.1029 C.ar        1 YKI      -0.0512
     15 C9          3.0417   10.4302   23.8800 C.ar        1 YKI      -0.0623
     16 C10         2.7448   10.0505   25.2039 C.ar        1 YKI      -0.0499
     17 C11         3.7520    6.6111   21.3720 C.2         1 YKI       0.2116
     18 C12         3.5839    5.8634   20.2287 C.ar        1 YKI       0.0544
     19 O13         2.7451    6.9738   21.9603 O.2         1 YKI      -0.3825
     20 C14         3.3980    4.4607   20.3101 C.ar        1 YKI      -0.0315
     21 C15         3.1118    3.7269   19.1407 C.ar        1 YKI       0.0006
     22 C16         5.4128    7.5645   22.9812 C.3         1 YKI       0.1112
     23 C17         4.4927    8.5007   23.6577 C.ar        1 YKI       0.0062
     24 C18         4.2308    8.1316   24.9881 C.ar        1 YKI       0.0013
     25 C19         5.6865    6.6370   24.0889 C.ar        1 YKI       0.0020
     26 C20         5.0152    7.0023   25.2643 C.ar        1 YKI      -0.0129
     27 C21         5.2713    6.3019   26.4629 C.ar        1 YKI      -0.0610
     28 C22         6.1448    5.1958   26.4482 C.ar        1 YKI      -0.0680
     29 C23         6.7665    4.7967   25.2476 C.ar        1 YKI      -0.0680
     30 C24         6.5516    5.5261   24.0627 C.ar        1 YKI      -0.0553
     31 C25         3.4850    6.4623   18.9578 C.ar        1 YKI       0.0172
     32 C26         3.1690    5.7015   17.8296 C.ar        1 YKI       0.1409
     33 C27         3.3349    7.7878   17.1667 C.2         1 YKI       0.0293
     34 C28         3.6168    7.7795   18.5248 C.2         1 YKI      -0.0523
     35 H1          1.5434    8.0163   32.3367 H           1 YKI       0.0705
     36 H2          1.0911    5.4603   29.1134 H           1 YKI       0.0763
     37 H3          2.1298    6.5991   26.7056 H           1 YKI       0.2328
     38 H4          2.5832    9.7234   30.9063 H           1 YKI       0.0643
     39 H5          5.6976    6.4603   21.2870 H           1 YKI       0.1910
     40 H6          2.8473    6.3072   15.8567 H           1 YKI       0.2313
     41 H7          4.1471    9.9376   22.1445 H           1 YKI       0.0605
     42 H8          2.5955   11.2561   23.4734 H           1 YKI       0.0605
     43 H9          2.0702   10.6099   25.7338 H           1 YKI       0.0619
     44 H10         3.4610    3.9756   21.2117 H           1 YKI       0.0656
     45 H11         2.9749    2.7141   19.1971 H           1 YKI       0.0758
     46 H12         6.3310    8.1006   22.7291 H           1 YKI       0.0919
     47 H13         4.8560    6.5930   27.3465 H           1 YKI       0.0603
     48 H14         6.3361    4.6869   27.3133 H           1 YKI       0.0563
     49 H15         7.3907    3.9870   25.2410 H           1 YKI       0.0597
     50 H16         7.0263    5.2572   23.1973 H           1 YKI       0.0566
     51 H17         3.3175    8.6053   16.5584 H           1 YKI       0.0983
     52 H18         3.8690    8.5862   19.0933 H           1 YKI       0.0310
@<TRIPOS>BOND
     1     1     2  ar
     2     5     1  ar
     3     3     2  ar
     4    11     3  ar
     5     7     4   1
     6     4    11   1
     7     9     5  ar
     8     7     6   2
     9     6     9   1
    10    13     7   1
    11     8    17  am
    12    22     8   1
    13     9    11  ar
    14    21    10  ar
    15    10    32  ar
    16    32    12   1
    17    12    33   1
    18    16    13  ar
    19    13    24  ar
    20    14    15  ar
    21    23    14  ar
    22    15    16  ar
    23    17    18   1
    24    17    19   2
    25    18    20  ar
    26    18    31  ar
    27    20    21  ar
    28    22    23   1
    29    22    25   1
    30    23    24  ar
    31    24    26   1
    32    25    26  ar
    33    25    30  ar
    34    26    27  ar
    35    27    28  ar
    36    28    29  ar
    37    29    30  ar
    38    31    32  ar
    39    31    34   1
    40    33    34   2
    41     1    35   1
    42     3    36   1
    43     4    37   1
    44     5    38   1
    45     8    39   1
    46    12    40   1
    47    14    41   1
    48    15    42   1
    49    16    43   1
    50    20    44   1
    51    21    45   1
    52    22    46   1
    53    27    47   1
    54    28    48   1
    55    29    49   1
    56    30    50   1
    57    33    51   1
    58    34    52   1
@<TRIPOS>SUBSTRUCTURE
     1  YKI      1

