@<TRIPOS>MOLECULE
2yki_ligand_055
    52    58
SMALL
GAST_HUCK
****
This file was generated by PARSER (from files_GN.cpp)

@<TRIPOS>ATOM
      1 C1          0.5041   -0.5968   29.9364 C.ar        1 YKI      -0.0069
      2 N1         -0.3106   -1.3442   29.1351 N.ar        1 YKI      -0.3145
      3 C2         -0.5191   -1.0619   27.8205 C.ar        1 YKI       0.0318
      4 N2          0.1321    0.5837   26.0428 N.pl3       1 YKI      -0.2421
      5 C3          1.1808    0.5247   29.4102 C.ar        1 YKI      -0.0358
      6 N3          1.4632    1.8250   27.2959 N.2         1 YKI      -0.2951
      7 C4          0.9224    1.6753   26.0662 C.2         1 YKI       0.1441
      8 N4          1.8848    6.9849   23.8300 N.am        1 YKI      -0.2584
      9 C5          0.9769    0.8302   28.0542 C.ar        1 YKI       0.0509
     10 N5          5.2571   10.6421   22.9831 N.ar        1 YKI      -0.2805
     11 C6          0.1355    0.0490   27.2668 C.ar        1 YKI       0.1092
     12 N6          5.6473    9.0889   21.1439 N.pl3       1 YKI      -0.2631
     13 C7          1.1643    2.5181   24.9627 C.ar        1 YKI       0.0361
     14 C8          1.7489    4.1162   22.6831 C.ar        1 YKI      -0.0512
     15 C9          2.0232    2.7392   22.6713 C.ar        1 YKI      -0.0623
     16 C10         1.7280    1.9462   23.7970 C.ar        1 YKI      -0.0499
     17 C11         1.8474    8.3118   23.7480 C.2         1 YKI       0.2116
     18 C12         3.0006    9.0493   23.5254 C.ar        1 YKI       0.0544
     19 O13         0.7906    8.9276   23.8014 O.2         1 YKI      -0.3825
     20 C14         3.2832   10.2122   24.2891 C.ar        1 YKI      -0.0315
     21 C15         4.4308   10.9851   24.0072 C.ar        1 YKI       0.0006
     22 C16         0.7581    6.1051   23.9779 C.3         1 YKI       0.1112
     23 C17         1.1639    4.6924   23.8259 C.ar        1 YKI       0.0062
     24 C18         0.8654    3.9089   24.9557 C.ar        1 YKI       0.0013
     25 C19         0.1829    6.0497   25.3393 C.ar        1 YKI       0.0020
     26 C20         0.2390    4.7545   25.8837 C.ar        1 YKI      -0.0129
     27 C21        -0.3452    4.4968   27.1429 C.ar        1 YKI      -0.0610
     28 C22        -0.9263    5.5470   27.8744 C.ar        1 YKI      -0.0680
     29 C23        -0.9649    6.8469   27.3395 C.ar        1 YKI      -0.0680
     30 C24        -0.4406    7.0934   26.0578 C.ar        1 YKI      -0.0553
     31 C25         3.8986    8.7271   22.4823 C.ar        1 YKI       0.0172
     32 C26         5.0003    9.5478   22.2256 C.ar        1 YKI       0.1409
     33 C27         5.0089    8.0002   20.6830 C.2         1 YKI       0.0293
     34 C28         3.9172    7.7377   21.5031 C.2         1 YKI      -0.0523
     35 H1          0.6216   -0.8564   30.9184 H           1 YKI       0.0705
     36 H2         -1.1370   -1.6448   27.2562 H           1 YKI       0.0763
     37 H3         -0.3677    0.2592   25.2781 H           1 YKI       0.2328
     38 H4          1.7917    1.0983   29.9970 H           1 YKI       0.0643
     39 H5          2.7540    6.5652   23.7254 H           1 YKI       0.1910
     40 H6          6.4292    9.4944   20.7382 H           1 YKI       0.2313
     41 H7          1.9564    4.6868   21.8626 H           1 YKI       0.0605
     42 H8          2.4373    2.3082   21.8431 H           1 YKI       0.0605
     43 H9          1.9429    0.9443   23.7605 H           1 YKI       0.0619
     44 H10         2.6643   10.5043   25.0520 H           1 YKI       0.0656
     45 H11         4.6355   11.8185   24.5599 H           1 YKI       0.0758
     46 H12        -0.0185    6.3375   23.2444 H           1 YKI       0.0919
     47 H13        -0.3787    3.5596   27.5343 H           1 YKI       0.0603
     48 H14        -1.3397    5.3654   28.7891 H           1 YKI       0.0563
     49 H15        -1.4051    7.6068   27.8644 H           1 YKI       0.0597
     50 H16        -0.5373    8.0249   25.6643 H           1 YKI       0.0566
     51 H17         5.2672    7.4719   19.8488 H           1 YKI       0.0983
     52 H18         3.2303    6.9943   21.3651 H           1 YKI       0.0310
@<TRIPOS>BOND
     1     1     2  ar
     2     5     1  ar
     3     3     2  ar
     4    11     3  ar
     5     7     4   1
     6     4    11   1
     7     9     5  ar
     8     7     6   2
     9     6     9   1
    10    13     7   1
    11     8    17  am
    12    22     8   1
    13     9    11  ar
    14    21    10  ar
    15    10    32  ar
    16    32    12   1
    17    12    33   1
    18    16    13  ar
    19    13    24  ar
    20    14    15  ar
    21    23    14  ar
    22    15    16  ar
    23    17    18   1
    24    17    19   2
    25    18    20  ar
    26    18    31  ar
    27    20    21  ar
    28    22    23   1
    29    22    25   1
    30    23    24  ar
    31    24    26   1
    32    25    26  ar
    33    25    30  ar
    34    26    27  ar
    35    27    28  ar
    36    28    29  ar
    37    29    30  ar
    38    31    32  ar
    39    31    34   1
    40    33    34   2
    41     1    35   1
    42     3    36   1
    43     4    37   1
    44     5    38   1
    45     8    39   1
    46    12    40   1
    47    14    41   1
    48    15    42   1
    49    16    43   1
    50    20    44   1
    51    21    45   1
    52    22    46   1
    53    27    47   1
    54    28    48   1
    55    29    49   1
    56    30    50   1
    57    33    51   1
    58    34    52   1
@<TRIPOS>SUBSTRUCTURE
     1  YKI      1

