@<TRIPOS>MOLECULE
2yki_ligand_093
    52    58
SMALL
GAST_HUCK
****
This file was generated by PARSER (from files_GN.cpp)

@<TRIPOS>ATOM
      1 C1          9.6199    1.9219   24.1815 C.ar        1 YKI      -0.0069
      2 N1         10.6084    1.4379   24.9871 N.ar        1 YKI      -0.3145
      3 C2         10.4182    1.1487   26.3037 C.ar        1 YKI       0.0318
      4 N2          8.6671    1.2449   28.0921 N.pl3       1 YKI      -0.2421
      5 C3          8.3248    2.1397   24.6986 C.ar        1 YKI      -0.0358
      6 N3          7.0276    2.0297   26.8344 N.2         1 YKI      -0.2951
      7 C4          7.3883    1.6641   28.0817 C.2         1 YKI       0.1441
      8 N4          4.3650    4.6093   32.1727 N.am        1 YKI      -0.2584
      9 C5          8.1125    1.8654   26.0604 C.ar        1 YKI       0.0509
     10 N5         -0.2035    5.9131   33.5641 N.ar        1 YKI      -0.2805
     11 C6          9.1475    1.3765   26.8547 C.ar        1 YKI       0.1092
     12 N6          0.4230    7.7187   32.0544 N.pl3       1 YKI      -0.2631
     13 C7          6.5859    1.7084   29.2305 C.ar        1 YKI       0.0361
     14 C8          5.2211    1.6282   31.7198 C.ar        1 YKI      -0.0512
     15 C9          5.4413    0.4429   30.9969 C.ar        1 YKI      -0.0623
     16 C10         6.1374    0.4799   29.7737 C.ar        1 YKI      -0.0499
     17 C11         3.8364    4.8031   33.3737 C.2         1 YKI       0.2116
     18 C12         2.5196    5.2161   33.4746 C.ar        1 YKI       0.0544
     19 O13         4.4467    4.5117   34.3953 O.2         1 YKI      -0.3825
     20 C14         1.6072    4.5171   34.3065 C.ar        1 YKI      -0.0315
     21 C15         0.2424    4.8758   34.3191 C.ar        1 YKI       0.0006
     22 C16         5.6864    4.1435   31.8918 C.3         1 YKI       0.1112
     23 C17         5.6930    2.8466   31.1967 C.ar        1 YKI       0.0062
     24 C18         6.3373    2.9081   29.9490 C.ar        1 YKI       0.0013
     25 C19         6.3137    4.9894   30.8724 C.ar        1 YKI       0.0020
     26 C20         6.6769    4.2563   29.7327 C.ar        1 YKI      -0.0129
     27 C21         7.2462    4.9342   28.6328 C.ar        1 YKI      -0.0610
     28 C22         7.4338    6.3321   28.6926 C.ar        1 YKI      -0.0680
     29 C23         7.0828    7.0516   29.8519 C.ar        1 YKI      -0.0680
     30 C24         6.5287    6.3789   30.9559 C.ar        1 YKI      -0.0553
     31 C25         2.0135    6.3113   32.7345 C.ar        1 YKI       0.0172
     32 C26         0.6583    6.6394   32.8135 C.ar        1 YKI       0.1409
     33 C27         1.5736    8.1131   31.4839 C.2         1 YKI       0.0293
     34 C28         2.5888    7.2446   31.8762 C.2         1 YKI      -0.0523
     35 H1          9.8267    2.1347   23.2050 H           1 YKI       0.0705
     36 H2         11.1850    0.7913   26.8758 H           1 YKI       0.0763
     37 H3          9.1628    0.9377   28.8676 H           1 YKI       0.2328
     38 H4          7.5739    2.5061   24.1110 H           1 YKI       0.0643
     39 H5          3.8005    4.7924   31.4032 H           1 YKI       0.1910
     40 H6         -0.4318    8.1629   31.9489 H           1 YKI       0.2313
     41 H7          4.7493    1.5981   32.6264 H           1 YKI       0.0605
     42 H8          5.1261   -0.4530   31.3784 H           1 YKI       0.0605
     43 H9          6.3252   -0.4039   29.2897 H           1 YKI       0.0619
     44 H10         1.9161    3.7199   34.8698 H           1 YKI       0.0656
     45 H11        -0.4245    4.3427   34.8799 H           1 YKI       0.0758
     46 H12         6.3320    4.0907   32.7732 H           1 YKI       0.0919
     47 H13         7.5052    4.4349   27.7854 H           1 YKI       0.0603
     48 H14         7.8189    6.8318   27.8899 H           1 YKI       0.0563
     49 H15         7.2197    8.0647   29.8872 H           1 YKI       0.0597
     50 H16         6.2651    6.8961   31.7966 H           1 YKI       0.0566
     51 H17         1.6798    8.9292   30.8796 H           1 YKI       0.0983
     52 H18         3.5708    7.3073   31.6046 H           1 YKI       0.0310
@<TRIPOS>BOND
     1     1     2  ar
     2     5     1  ar
     3     3     2  ar
     4    11     3  ar
     5     7     4   1
     6     4    11   1
     7     9     5  ar
     8     7     6   2
     9     6     9   1
    10    13     7   1
    11     8    17  am
    12    22     8   1
    13     9    11  ar
    14    21    10  ar
    15    10    32  ar
    16    32    12   1
    17    12    33   1
    18    16    13  ar
    19    13    24  ar
    20    14    15  ar
    21    23    14  ar
    22    15    16  ar
    23    17    18   1
    24    17    19   2
    25    18    20  ar
    26    18    31  ar
    27    20    21  ar
    28    22    23   1
    29    22    25   1
    30    23    24  ar
    31    24    26   1
    32    25    26  ar
    33    25    30  ar
    34    26    27  ar
    35    27    28  ar
    36    28    29  ar
    37    29    30  ar
    38    31    32  ar
    39    31    34   1
    40    33    34   2
    41     1    35   1
    42     3    36   1
    43     4    37   1
    44     5    38   1
    45     8    39   1
    46    12    40   1
    47    14    41   1
    48    15    42   1
    49    16    43   1
    50    20    44   1
    51    21    45   1
    52    22    46   1
    53    27    47   1
    54    28    48   1
    55    29    49   1
    56    30    50   1
    57    33    51   1
    58    34    52   1
@<TRIPOS>SUBSTRUCTURE
     1  YKI      1

