@<TRIPOS>MOLECULE
2yki_ligand_064
    52    58
SMALL
GAST_HUCK
****
This file was generated by PARSER (from files_GN.cpp)

@<TRIPOS>ATOM
      1 C1          1.7117    6.0497   34.8182 C.ar        1 YKI      -0.0069
      2 N1          2.3438    4.8457   34.9099 N.ar        1 YKI      -0.3145
      3 C2          3.2206    4.3961   33.9681 C.ar        1 YKI       0.0318
      4 N2          4.2630    5.0542   31.7882 N.pl3       1 YKI      -0.2421
      5 C3          1.9460    6.8956   33.7128 C.ar        1 YKI      -0.0358
      6 N3          3.2551    7.0062   31.5758 N.2         1 YKI      -0.2951
      7 C4          4.1145    6.1353   31.0040 C.2         1 YKI       0.1441
      8 N4          4.1317    7.7592   25.4091 N.am        1 YKI      -0.2584
      9 C5          2.8454    6.4479   32.7284 C.ar        1 YKI       0.0509
     10 N5          3.9432   12.3114   23.2902 N.ar        1 YKI      -0.2805
     11 C6          3.4780    5.2139   32.8558 C.ar        1 YKI       0.1092
     12 N6          1.7058   12.7997   24.1431 N.pl3       1 YKI      -0.2631
     13 C7          4.7912    6.3025   29.7869 C.ar        1 YKI       0.0361
     14 C8          6.2874    6.6028   27.3848 C.ar        1 YKI      -0.0512
     15 C9          6.9438    6.5746   28.6285 C.ar        1 YKI      -0.0623
     16 C10         6.2011    6.4296   29.8171 C.ar        1 YKI      -0.0499
     17 C11         3.8074    8.9759   25.8428 C.2         1 YKI       0.2116
     18 C12         3.8446   10.0679   24.9850 C.ar        1 YKI       0.0544
     19 O13         3.4376    9.1529   26.9950 O.2         1 YKI      -0.3825
     20 C14         4.9712   10.3202   24.1630 C.ar        1 YKI      -0.0315
     21 C15         4.9983   11.4565   23.3246 C.ar        1 YKI       0.0006
     22 C16         4.0426    6.5240   26.1382 C.3         1 YKI       0.1112
     23 C17         4.8844    6.4898   27.3471 C.ar        1 YKI       0.0062
     24 C18         4.1354    6.3279   28.5262 C.ar        1 YKI       0.0013
     25 C19         2.7201    6.2745   26.7402 C.ar        1 YKI       0.0020
     26 C20         2.7912    6.1799   28.1392 C.ar        1 YKI      -0.0129
     27 C21         1.6067    5.9747   28.8820 C.ar        1 YKI      -0.0610
     28 C22         0.3695    5.8809   28.2138 C.ar        1 YKI      -0.0680
     29 C23         0.3077    5.9926   26.8097 C.ar        1 YKI      -0.0680
     30 C24         1.4854    6.1928   26.0647 C.ar        1 YKI      -0.0553
     31 C25         2.7677   10.9887   24.9055 C.ar        1 YKI       0.0172
     32 C26         2.8449   12.0938   24.0547 C.ar        1 YKI       0.1409
     33 C27         0.8798   12.1897   25.0074 C.2         1 YKI       0.0293
     34 C28         1.5103   11.0548   25.5058 C.2         1 YKI      -0.0523
     35 H1          1.0685    6.3332   35.5580 H           1 YKI       0.0705
     36 H2          3.6712    3.4854   34.0685 H           1 YKI       0.0763
     37 H3          4.8236    4.2844   31.6055 H           1 YKI       0.2328
     38 H4          1.4726    7.7965   33.6263 H           1 YKI       0.0643
     39 H5          4.4133    7.6853   24.4828 H           1 YKI       0.1910
     40 H6          1.5070   13.6049   23.6492 H           1 YKI       0.2313
     41 H7          6.8251    6.7099   26.5194 H           1 YKI       0.0605
     42 H8          7.9614    6.6730   28.6689 H           1 YKI       0.0605
     43 H9          6.7060    6.4149   30.7070 H           1 YKI       0.0619
     44 H10         5.7890    9.7041   24.1909 H           1 YKI       0.0656
     45 H11         5.8185   11.6451   22.7464 H           1 YKI       0.0758
     46 H12         4.3110    5.6962   25.4809 H           1 YKI       0.0919
     47 H13         1.6247    5.9094   29.8939 H           1 YKI       0.0603
     48 H14        -0.4897    5.7384   28.7526 H           1 YKI       0.0563
     49 H15        -0.5961    5.9465   26.3364 H           1 YKI       0.0597
     50 H16         1.4422    6.2965   25.0503 H           1 YKI       0.0566
     51 H17        -0.0634   12.4962   25.2483 H           1 YKI       0.0983
     52 H18         1.1099   10.3880   26.1721 H           1 YKI       0.0310
@<TRIPOS>BOND
     1     1     2  ar
     2     5     1  ar
     3     3     2  ar
     4    11     3  ar
     5     7     4   1
     6     4    11   1
     7     9     5  ar
     8     7     6   2
     9     6     9   1
    10    13     7   1
    11     8    17  am
    12    22     8   1
    13     9    11  ar
    14    21    10  ar
    15    10    32  ar
    16    32    12   1
    17    12    33   1
    18    16    13  ar
    19    13    24  ar
    20    14    15  ar
    21    23    14  ar
    22    15    16  ar
    23    17    18   1
    24    17    19   2
    25    18    20  ar
    26    18    31  ar
    27    20    21  ar
    28    22    23   1
    29    22    25   1
    30    23    24  ar
    31    24    26   1
    32    25    26  ar
    33    25    30  ar
    34    26    27  ar
    35    27    28  ar
    36    28    29  ar
    37    29    30  ar
    38    31    32  ar
    39    31    34   1
    40    33    34   2
    41     1    35   1
    42     3    36   1
    43     4    37   1
    44     5    38   1
    45     8    39   1
    46    12    40   1
    47    14    41   1
    48    15    42   1
    49    16    43   1
    50    20    44   1
    51    21    45   1
    52    22    46   1
    53    27    47   1
    54    28    48   1
    55    29    49   1
    56    30    50   1
    57    33    51   1
    58    34    52   1
@<TRIPOS>SUBSTRUCTURE
     1  YKI      1

