@<TRIPOS>MOLECULE
2yki_ligand_073
    52    58
SMALL
GAST_HUCK
****
This file was generated by PARSER (from files_GN.cpp)

@<TRIPOS>ATOM
      1 C1         11.7694    5.4035   33.9267 C.ar        1 YKI      -0.0069
      2 N1         12.2150    6.2623   32.9652 N.ar        1 YKI      -0.3145
      3 C2         11.7226    6.2738   31.6963 C.ar        1 YKI       0.0318
      4 N2         10.0116    5.1456   30.2471 N.pl3       1 YKI      -0.2421
      5 C3         10.7519    4.4715   33.6301 C.ar        1 YKI      -0.0358
      6 N3          9.2597    3.7353   31.7710 N.2         1 YKI      -0.2951
      7 C4          9.1197    4.1677   30.5024 C.2         1 YKI       0.1441
      8 N4          4.9690    4.9688   26.5236 N.am        1 YKI      -0.2584
      9 C5         10.2291    4.4751   32.3282 C.ar        1 YKI       0.0509
     10 N5          5.1555    6.3554   21.7298 N.ar        1 YKI      -0.2805
     11 C6         10.7046    5.3639   31.3676 C.ar        1 YKI       0.1092
     12 N6          5.4666    3.9455   21.5231 N.pl3       1 YKI      -0.2631
     13 C7          8.1826    3.6452   29.5973 C.ar        1 YKI       0.0361
     14 C8          6.3316    2.4716   27.7932 C.ar        1 YKI      -0.0512
     15 C9          7.4606    1.7495   28.2186 C.ar        1 YKI      -0.0623
     16 C10         8.3802    2.3319   29.1110 C.ar        1 YKI      -0.0499
     17 C11         5.8170    5.7186   25.8243 C.2         1 YKI       0.2116
     18 C12         5.5958    5.9263   24.4807 C.ar        1 YKI       0.0544
     19 O13         6.7622    6.3003   26.3462 O.2         1 YKI      -0.3825
     20 C14         5.3724    7.2302   23.9683 C.ar        1 YKI      -0.0315
     21 C15         5.1420    7.4160   22.5852 C.ar        1 YKI       0.0006
     22 C16         5.0125    4.6675   27.9317 C.3         1 YKI       0.1112
     23 C17         6.1317    3.7757   28.2808 C.ar        1 YKI       0.0062
     24 C18         7.0365    4.3677   29.1752 C.ar        1 YKI       0.0013
     25 C19         5.3121    5.8151   28.8053 C.ar        1 YKI       0.0020
     26 C20         6.5309    5.6451   29.4798 C.ar        1 YKI      -0.0129
     27 C21         7.0451    6.7102   30.2502 C.ar        1 YKI      -0.0610
     28 C22         6.3579    7.9400   30.2977 C.ar        1 YKI      -0.0680
     29 C23         5.1279    8.0883   29.6291 C.ar        1 YKI      -0.0680
     30 C24         4.5921    7.0230   28.8791 C.ar        1 YKI      -0.0553
     31 C25         5.5937    4.8580   23.5557 C.ar        1 YKI       0.0172
     32 C26         5.3781    5.1019   22.1952 C.ar        1 YKI       0.1409
     33 C27         5.7362    2.9548   22.3914 C.2         1 YKI       0.0293
     34 C28         5.8156    3.4917   23.6759 C.2         1 YKI      -0.0523
     35 H1         12.1699    5.4462   34.8655 H           1 YKI       0.0705
     36 H2         12.0712    6.9428   31.0102 H           1 YKI       0.0763
     37 H3         10.1094    5.6223   29.4086 H           1 YKI       0.2328
     38 H4         10.3967    3.8289   34.3401 H           1 YKI       0.0643
     39 H5          4.2156    4.5992   26.0362 H           1 YKI       0.1910
     40 H6          5.3779    3.8410   20.5594 H           1 YKI       0.2313
     41 H7          5.6613    2.0484   27.1466 H           1 YKI       0.0605
     42 H8          7.6159    0.7998   27.8713 H           1 YKI       0.0605
     43 H9          9.1936    1.7862   29.4006 H           1 YKI       0.0619
     44 H10         5.3502    8.0424   24.5905 H           1 YKI       0.0656
     45 H11         4.9713    8.3577   22.2121 H           1 YKI       0.0758
     46 H12         4.0705    4.2025   28.2419 H           1 YKI       0.0919
     47 H13         7.9218    6.6131   30.7533 H           1 YKI       0.0603
     48 H14         6.7570    8.7271   30.8059 H           1 YKI       0.0563
     49 H15         4.6384    8.9868   29.6554 H           1 YKI       0.0597
     50 H16         3.7071    7.1351   28.3758 H           1 YKI       0.0566
     51 H17         5.8812    1.9720   22.1438 H           1 YKI       0.0983
     52 H18         6.0250    2.9764   24.5300 H           1 YKI       0.0310
@<TRIPOS>BOND
     1     1     2  ar
     2     5     1  ar
     3     3     2  ar
     4    11     3  ar
     5     7     4   1
     6     4    11   1
     7     9     5  ar
     8     7     6   2
     9     6     9   1
    10    13     7   1
    11     8    17  am
    12    22     8   1
    13     9    11  ar
    14    21    10  ar
    15    10    32  ar
    16    32    12   1
    17    12    33   1
    18    16    13  ar
    19    13    24  ar
    20    14    15  ar
    21    23    14  ar
    22    15    16  ar
    23    17    18   1
    24    17    19   2
    25    18    20  ar
    26    18    31  ar
    27    20    21  ar
    28    22    23   1
    29    22    25   1
    30    23    24  ar
    31    24    26   1
    32    25    26  ar
    33    25    30  ar
    34    26    27  ar
    35    27    28  ar
    36    28    29  ar
    37    29    30  ar
    38    31    32  ar
    39    31    34   1
    40    33    34   2
    41     1    35   1
    42     3    36   1
    43     4    37   1
    44     5    38   1
    45     8    39   1
    46    12    40   1
    47    14    41   1
    48    15    42   1
    49    16    43   1
    50    20    44   1
    51    21    45   1
    52    22    46   1
    53    27    47   1
    54    28    48   1
    55    29    49   1
    56    30    50   1
    57    33    51   1
    58    34    52   1
@<TRIPOS>SUBSTRUCTURE
     1  YKI      1

