@<TRIPOS>MOLECULE
2yki_ligand_072
    52    58
SMALL
GAST_HUCK
****
This file was generated by PARSER (from files_GN.cpp)

@<TRIPOS>ATOM
      1 C1          0.7945    1.5639   28.2004 C.ar        1 YKI      -0.0069
      2 N1         -0.3298    1.9845   27.5539 N.ar        1 YKI      -0.3145
      3 C2         -0.2980    2.7811   26.4503 C.ar        1 YKI       0.0318
      4 N2          1.3185    3.9343   24.9155 N.pl3       1 YKI      -0.2421
      5 C3          2.0695    1.9411   27.7265 C.ar        1 YKI      -0.0358
      6 N3          3.1648    3.3059   25.9460 N.2         1 YKI      -0.2951
      7 C4          2.6591    4.0466   24.9343 C.2         1 YKI       0.1441
      8 N4          5.0833    8.9975   23.0621 N.am        1 YKI      -0.2584
      9 C5          2.1191    2.7724   26.5950 C.ar        1 YKI       0.0509
     10 N5          9.3572   11.6008   23.3797 N.ar        1 YKI      -0.2805
     11 C6          0.9531    3.1720   25.9479 C.ar        1 YKI       0.1092
     12 N6          8.0334   12.6082   25.1560 N.pl3       1 YKI      -0.2631
     13 C7          3.4292    4.7775   24.0055 C.ar        1 YKI       0.0361
     14 C8          4.8821    6.0876   21.9446 C.ar        1 YKI      -0.0512
     15 C9          5.0006    4.7011   22.1164 C.ar        1 YKI      -0.0623
     16 C10         4.2853    4.0515   23.1392 C.ar        1 YKI      -0.0499
     17 C11         5.7618    9.7398   22.1961 C.2         1 YKI       0.2116
     18 C12         6.9384   10.3807   22.5850 C.ar        1 YKI       0.0544
     19 O13         5.3848    9.8321   21.0323 O.2         1 YKI      -0.3825
     20 C14         8.1479   10.1758   21.8665 C.ar        1 YKI      -0.0315
     21 C15         9.3468   10.7887   22.2900 C.ar        1 YKI       0.0006
     22 C16         3.8723    8.2791   22.8153 C.3         1 YKI       0.1112
     23 C17         4.0735    6.8233   22.8312 C.ar        1 YKI       0.0062
     24 C18         3.3561    6.1894   23.8620 C.ar        1 YKI       0.0013
     25 C19         2.9520    8.4227   23.9493 C.ar        1 YKI       0.0020
     26 C20         2.6837    7.1968   24.5744 C.ar        1 YKI      -0.0129
     27 C21         1.8776    7.1796   25.7334 C.ar        1 YKI      -0.0610
     28 C22         1.2925    8.3716   26.1981 C.ar        1 YKI      -0.0680
     29 C23         1.5280    9.5882   25.5310 C.ar        1 YKI      -0.0680
     30 C24         2.3799    9.6261   24.4106 C.ar        1 YKI      -0.0553
     31 C25         7.0054   11.2465   23.7074 C.ar        1 YKI       0.0172
     32 C26         8.2198   11.8321   24.0782 C.ar        1 YKI       0.1409
     33 C27         6.7342   12.5741   25.4962 C.2         1 YKI       0.0293
     34 C28         6.0630   11.7389   24.6097 C.2         1 YKI      -0.0523
     35 H1          0.7083    0.9718   29.0262 H           1 YKI       0.0705
     36 H2         -1.1612    3.0918   26.0041 H           1 YKI       0.0763
     37 H3          0.7181    4.3625   24.2923 H           1 YKI       0.2328
     38 H4          2.9270    1.6371   28.1979 H           1 YKI       0.0643
     39 H5          5.4593    8.9093   23.9512 H           1 YKI       0.1910
     40 H6          8.7191   13.1274   25.6055 H           1 YKI       0.2313
     41 H7          5.3860    6.5484   21.1856 H           1 YKI       0.0605
     42 H8          5.5955    4.1659   21.4826 H           1 YKI       0.0605
     43 H9          4.3758    3.0345   23.2204 H           1 YKI       0.0619
     44 H10         8.1768    9.5596   21.0501 H           1 YKI       0.0656
     45 H11        10.2164   10.6250   21.7781 H           1 YKI       0.0758
     46 H12         3.3742    8.6041   21.9054 H           1 YKI       0.0919
     47 H13         1.7195    6.3247   26.2596 H           1 YKI       0.0603
     48 H14         0.6981    8.3480   27.0266 H           1 YKI       0.0563
     49 H15         1.0846   10.4436   25.8651 H           1 YKI       0.0597
     50 H16         2.5743   10.5140   23.9351 H           1 YKI       0.0566
     51 H17         6.3057   13.0897   26.2671 H           1 YKI       0.0983
     52 H18         5.0593   11.5571   24.6174 H           1 YKI       0.0310
@<TRIPOS>BOND
     1     1     2  ar
     2     5     1  ar
     3     3     2  ar
     4    11     3  ar
     5     7     4   1
     6     4    11   1
     7     9     5  ar
     8     7     6   2
     9     6     9   1
    10    13     7   1
    11     8    17  am
    12    22     8   1
    13     9    11  ar
    14    21    10  ar
    15    10    32  ar
    16    32    12   1
    17    12    33   1
    18    16    13  ar
    19    13    24  ar
    20    14    15  ar
    21    23    14  ar
    22    15    16  ar
    23    17    18   1
    24    17    19   2
    25    18    20  ar
    26    18    31  ar
    27    20    21  ar
    28    22    23   1
    29    22    25   1
    30    23    24  ar
    31    24    26   1
    32    25    26  ar
    33    25    30  ar
    34    26    27  ar
    35    27    28  ar
    36    28    29  ar
    37    29    30  ar
    38    31    32  ar
    39    31    34   1
    40    33    34   2
    41     1    35   1
    42     3    36   1
    43     4    37   1
    44     5    38   1
    45     8    39   1
    46    12    40   1
    47    14    41   1
    48    15    42   1
    49    16    43   1
    50    20    44   1
    51    21    45   1
    52    22    46   1
    53    27    47   1
    54    28    48   1
    55    29    49   1
    56    30    50   1
    57    33    51   1
    58    34    52   1
@<TRIPOS>SUBSTRUCTURE
     1  YKI      1

