@<TRIPOS>MOLECULE
2yki_ligand_016
    52    58
SMALL
GAST_HUCK
****
This file was generated by PARSER (from files_GN.cpp)

@<TRIPOS>ATOM
      1 C1         11.1440   13.4241   26.6660 C.ar        1 YKI      -0.0069
      2 N1         11.2788   13.0885   25.3511 N.ar        1 YKI      -0.3145
      3 C2         10.2195   12.9622   24.5048 C.ar        1 YKI       0.0318
      4 N2          7.7217   13.1676   24.4524 N.pl3       1 YKI      -0.2421
      5 C3          9.8640   13.6531   27.2121 C.ar        1 YKI      -0.0358
      6 N3          7.4468   13.6952   26.5771 N.2         1 YKI      -0.2951
      7 C4          6.8173   13.4436   25.4097 C.2         1 YKI       0.1441
      8 N4          1.6605   10.8501   24.6602 N.am        1 YKI      -0.2584
      9 C5          8.7595   13.5357   26.3520 C.ar        1 YKI       0.0509
     10 N5         -1.4167    8.8337   28.0514 N.ar        1 YKI      -0.2805
     11 C6          8.9329   13.1966   25.0132 C.ar        1 YKI       0.1092
     12 N6         -0.5795    6.6110   27.4719 N.pl3       1 YKI      -0.2631
     13 C7          5.4265   13.5045   25.2132 C.ar        1 YKI       0.0361
     14 C8          2.6346   13.8024   24.7611 C.ar        1 YKI      -0.0512
     15 C9          3.3659   14.8355   25.3691 C.ar        1 YKI      -0.0623
     16 C10         4.7456   14.6847   25.6037 C.ar        1 YKI      -0.0499
     17 C11         1.8327   10.2462   25.8333 C.2         1 YKI       0.2116
     18 C12         0.7440    9.7758   26.5297 C.ar        1 YKI       0.0544
     19 O13         2.9379   10.0668   26.3284 O.2         1 YKI      -0.3825
     20 C14        -0.1659   10.6751   27.1352 C.ar        1 YKI      -0.0315
     21 C15        -1.2360   10.1751   27.9082 C.ar        1 YKI       0.0006
     22 C16         2.6727   11.4223   23.8114 C.3         1 YKI       0.1112
     23 C17         3.2989   12.6146   24.4058 C.ar        1 YKI       0.0062
     24 C18         4.6787   12.4527   24.6175 C.ar        1 YKI       0.0013
     25 C19         3.8607   10.5710   23.6256 C.ar        1 YKI       0.0020
     26 C20         5.0118   11.1600   24.1719 C.ar        1 YKI      -0.0129
     27 C21         6.1952   10.3956   24.2712 C.ar        1 YKI      -0.0610
     28 C22         6.2295    9.0849   23.7546 C.ar        1 YKI      -0.0680
     29 C23         5.0799    8.5231   23.1657 C.ar        1 YKI      -0.0680
     30 C24         3.8824    9.2607   23.1097 C.ar        1 YKI      -0.0553
     31 C25         0.5221    8.3928   26.7101 C.ar        1 YKI       0.0172
     32 C26        -0.5683    7.9536   27.4641 C.ar        1 YKI       0.1409
     33 C27         0.4632    6.1593   26.7532 C.2         1 YKI       0.0293
     34 C28         1.1771    7.2499   26.2634 C.2         1 YKI      -0.0523
     35 H1         11.9755   13.5109   27.2513 H           1 YKI       0.0705
     36 H2         10.3600   12.7073   23.5272 H           1 YKI       0.0763
     37 H3          7.5263   12.9631   23.5239 H           1 YKI       0.2328
     38 H4          9.7439   13.8960   28.1967 H           1 YKI       0.0643
     39 H5          0.7482   10.9006   24.3296 H           1 YKI       0.1910
     40 H6         -1.2380    6.0556   27.9191 H           1 YKI       0.2313
     41 H7          1.6315   13.9100   24.5920 H           1 YKI       0.0605
     42 H8          2.8948   15.6996   25.6406 H           1 YKI       0.0605
     43 H9          5.2532   15.4615   26.0389 H           1 YKI       0.0619
     44 H10        -0.0430   11.6871   27.0465 H           1 YKI       0.0656
     45 H11        -1.8785   10.8210   28.3700 H           1 YKI       0.0758
     46 H12         2.2362   11.6822   22.8463 H           1 YKI       0.0919
     47 H13         7.0181   10.7504   24.7538 H           1 YKI       0.0603
     48 H14         7.0846    8.5290   23.8322 H           1 YKI       0.0563
     49 H15         5.1049    7.5623   22.8160 H           1 YKI       0.0597
     50 H16         3.0304    8.8325   22.7397 H           1 YKI       0.0566
     51 H17         0.6893    5.1773   26.5893 H           1 YKI       0.0983
     52 H18         2.0145    7.2110   25.6776 H           1 YKI       0.0310
@<TRIPOS>BOND
     1     1     2  ar
     2     5     1  ar
     3     3     2  ar
     4    11     3  ar
     5     7     4   1
     6     4    11   1
     7     9     5  ar
     8     7     6   2
     9     6     9   1
    10    13     7   1
    11     8    17  am
    12    22     8   1
    13     9    11  ar
    14    21    10  ar
    15    10    32  ar
    16    32    12   1
    17    12    33   1
    18    16    13  ar
    19    13    24  ar
    20    14    15  ar
    21    23    14  ar
    22    15    16  ar
    23    17    18   1
    24    17    19   2
    25    18    20  ar
    26    18    31  ar
    27    20    21  ar
    28    22    23   1
    29    22    25   1
    30    23    24  ar
    31    24    26   1
    32    25    26  ar
    33    25    30  ar
    34    26    27  ar
    35    27    28  ar
    36    28    29  ar
    37    29    30  ar
    38    31    32  ar
    39    31    34   1
    40    33    34   2
    41     1    35   1
    42     3    36   1
    43     4    37   1
    44     5    38   1
    45     8    39   1
    46    12    40   1
    47    14    41   1
    48    15    42   1
    49    16    43   1
    50    20    44   1
    51    21    45   1
    52    22    46   1
    53    27    47   1
    54    28    48   1
    55    29    49   1
    56    30    50   1
    57    33    51   1
    58    34    52   1
@<TRIPOS>SUBSTRUCTURE
     1  YKI      1

