@<TRIPOS>MOLECULE
2yki_ligand_038
    52    58
SMALL
GAST_HUCK
****
This file was generated by PARSER (from files_GN.cpp)

@<TRIPOS>ATOM
      1 C1         -2.8422   10.8622   26.9597 C.ar        1 YKI      -0.0069
      2 N1         -2.2949   10.0895   27.9410 N.ar        1 YKI      -0.3145
      3 C2         -1.2839    9.1990   27.7166 C.ar        1 YKI       0.0318
      4 N2          0.1226    8.2675   25.8523 N.pl3       1 YKI      -0.2421
      5 C3         -2.3716   10.7513   25.6296 C.ar        1 YKI      -0.0358
      6 N3         -0.7536    9.4722   24.2265 N.2         1 YKI      -0.2951
      7 C4          0.1521    8.5298   24.5346 C.2         1 YKI       0.1441
      8 N4          5.3014    6.4643   22.4432 N.am        1 YKI      -0.2584
      9 C5         -1.3522    9.8253   25.3771 C.ar        1 YKI       0.0509
     10 N5          8.3017    2.5553   23.0217 N.ar        1 YKI      -0.2805
     11 C6         -0.8036    9.0546   26.4033 C.ar        1 YKI       0.1092
     12 N6          7.3823    1.9752   20.8232 N.pl3       1 YKI      -0.2631
     13 C7          0.9103    7.8129   23.5928 C.ar        1 YKI       0.0361
     14 C8          2.2930    6.2827   21.6284 C.ar        1 YKI      -0.0512
     15 C9          0.9280    6.0760   21.8450 C.ar        1 YKI      -0.0623
     16 C10         0.2365    6.8355   22.8166 C.ar        1 YKI      -0.0499
     17 C11         5.1903    5.3691   23.1866 C.2         1 YKI       0.2116
     18 C12         6.1854    4.4047   23.1412 C.ar        1 YKI       0.0544
     19 O13         4.2051    5.1776   23.9026 O.2         1 YKI      -0.3825
     20 C14         7.0826    4.2460   24.2295 C.ar        1 YKI      -0.0315
     21 C15         8.1373    3.3203   24.1390 C.ar        1 YKI       0.0006
     22 C16         4.3899    7.5735   22.3044 C.3         1 YKI       0.1112
     23 C17         2.9707    7.2305   22.4050 C.ar        1 YKI       0.0062
     24 C18         2.2955    7.9801   23.3892 C.ar        1 YKI       0.0013
     25 C19         4.4817    8.6021   23.3485 C.ar        1 YKI       0.0020
     26 C20         3.2467    8.8352   23.9649 C.ar        1 YKI      -0.0129
     27 C21         3.1334    9.8197   24.9763 C.ar        1 YKI      -0.0610
     28 C22         4.2789   10.5618   25.3409 C.ar        1 YKI      -0.0680
     29 C23         5.5061   10.3387   24.6923 C.ar        1 YKI      -0.0680
     30 C24         5.6189    9.3603   23.6875 C.ar        1 YKI      -0.0553
     31 C25         6.3646    3.5578   22.0238 C.ar        1 YKI       0.0172
     32 C26         7.4325    2.6618   21.9804 C.ar        1 YKI       0.1409
     33 C27         6.2995    2.3732   20.1267 C.2         1 YKI       0.0293
     34 C28         5.6343    3.3518   20.8607 C.2         1 YKI      -0.0523
     35 H1         -3.5883   11.5152   27.1871 H           1 YKI       0.0705
     36 H2         -0.8987    8.6451   28.4859 H           1 YKI       0.0763
     37 H3          0.6529    7.6007   26.3139 H           1 YKI       0.2328
     38 H4         -2.7682   11.3176   24.8797 H           1 YKI       0.0643
     39 H5          6.1567    6.5629   21.9737 H           1 YKI       0.1910
     40 H6          8.0095    1.2883   20.5360 H           1 YKI       0.2313
     41 H7          2.7805    5.7550   20.9018 H           1 YKI       0.0605
     42 H8          0.4148    5.3802   21.2937 H           1 YKI       0.0605
     43 H9         -0.7581    6.6455   22.9691 H           1 YKI       0.0619
     44 H10         6.9802    4.8121   25.0784 H           1 YKI       0.0656
     45 H11         8.7809    3.1983   24.9208 H           1 YKI       0.0758
     46 H12         4.5855    8.0358   21.3377 H           1 YKI       0.0919
     47 H13         2.2514   10.0025   25.4463 H           1 YKI       0.0603
     48 H14         4.2075   11.2599   26.0849 H           1 YKI       0.0563
     49 H15         6.3248   10.8956   24.9496 H           1 YKI       0.0597
     50 H16         6.5050    9.1997   23.2102 H           1 YKI       0.0566
     51 H17         6.0139    2.0160   19.2144 H           1 YKI       0.0983
     52 H18         4.7634    3.8054   20.5993 H           1 YKI       0.0310
@<TRIPOS>BOND
     1     1     2  ar
     2     5     1  ar
     3     3     2  ar
     4    11     3  ar
     5     7     4   1
     6     4    11   1
     7     9     5  ar
     8     7     6   2
     9     6     9   1
    10    13     7   1
    11     8    17  am
    12    22     8   1
    13     9    11  ar
    14    21    10  ar
    15    10    32  ar
    16    32    12   1
    17    12    33   1
    18    16    13  ar
    19    13    24  ar
    20    14    15  ar
    21    23    14  ar
    22    15    16  ar
    23    17    18   1
    24    17    19   2
    25    18    20  ar
    26    18    31  ar
    27    20    21  ar
    28    22    23   1
    29    22    25   1
    30    23    24  ar
    31    24    26   1
    32    25    26  ar
    33    25    30  ar
    34    26    27  ar
    35    27    28  ar
    36    28    29  ar
    37    29    30  ar
    38    31    32  ar
    39    31    34   1
    40    33    34   2
    41     1    35   1
    42     3    36   1
    43     4    37   1
    44     5    38   1
    45     8    39   1
    46    12    40   1
    47    14    41   1
    48    15    42   1
    49    16    43   1
    50    20    44   1
    51    21    45   1
    52    22    46   1
    53    27    47   1
    54    28    48   1
    55    29    49   1
    56    30    50   1
    57    33    51   1
    58    34    52   1
@<TRIPOS>SUBSTRUCTURE
     1  YKI      1

