@<TRIPOS>MOLECULE
2yki_ligand_084
    52    58
SMALL
GAST_HUCK
****
This file was generated by PARSER (from files_GN.cpp)

@<TRIPOS>ATOM
      1 C1          3.1690    5.7438   21.3568 C.ar        1 YKI      -0.0069
      2 N1          3.3963    4.4311   21.6526 N.ar        1 YKI      -0.3145
      3 C2          3.8972    4.0159   22.8489 C.ar        1 YKI       0.0318
      4 N2          4.6731    4.9077   25.0632 N.pl3       1 YKI      -0.2421
      5 C3          3.4539    6.7467   22.3075 C.ar        1 YKI      -0.0358
      6 N3          4.3127    7.0463   24.6319 N.2         1 YKI      -0.2951
      7 C4          4.7351    6.1591   25.5594 C.2         1 YKI       0.1441
      8 N4          3.7784    6.8749   31.1503 N.am        1 YKI      -0.2584
      9 C5          3.9686    6.3345   23.5474 C.ar        1 YKI       0.0509
     10 N5          3.4890    4.0260   35.2708 N.ar        1 YKI      -0.2805
     11 C6          4.1907    4.9873   23.8192 C.ar        1 YKI       0.1092
     12 N6          1.0504    3.8706   35.2974 N.pl3       1 YKI      -0.2631
     13 C7          5.1835    6.5012   26.8494 C.ar        1 YKI       0.0361
     14 C8          6.2168    7.2411   29.3910 C.ar        1 YKI      -0.0512
     15 C9          7.0721    6.7156   28.4050 C.ar        1 YKI      -0.0623
     16 C10         6.5587    6.3381   27.1466 C.ar        1 YKI      -0.0499
     17 C11         2.9161    6.8177   32.1564 C.2         1 YKI       0.2116
     18 C12         3.0919    5.8829   33.1742 C.ar        1 YKI       0.0544
     19 O13         1.9663    7.5892   32.2151 O.2         1 YKI      -0.3825
     20 C14         4.3989    5.5374   33.6234 C.ar        1 YKI      -0.0315
     21 C15         4.5658    4.6059   34.6765 C.ar        1 YKI       0.0006
     22 C16         3.8033    7.8083   30.0604 C.3         1 YKI       0.1112
     23 C17         4.8419    7.3697   29.1115 C.ar        1 YKI       0.0062
     24 C18         4.3202    7.0130   27.8575 C.ar        1 YKI       0.0013
     25 C19         2.6239    7.7678   29.1732 C.ar        1 YKI       0.0020
     26 C20         2.9380    7.2534   27.9021 C.ar        1 YKI      -0.0129
     27 C21         1.9213    7.0740   26.9367 C.ar        1 YKI      -0.0610
     28 C22         0.6061    7.4895   27.2298 C.ar        1 YKI      -0.0680
     29 C23         0.3117    8.0749   28.4797 C.ar        1 YKI      -0.0680
     30 C24         1.3192    8.2168   29.4571 C.ar        1 YKI      -0.0553
     31 C25         2.0044    5.2508   33.8269 C.ar        1 YKI       0.0172
     32 C26         2.2313    4.3348   34.8623 C.ar        1 YKI       0.1409
     33 C27         0.0601    4.4355   34.5812 C.2         1 YKI       0.0293
     34 C28         0.6204    5.3120   33.6585 C.2         1 YKI      -0.0523
     35 H1          2.7871    5.9958   20.4443 H           1 YKI       0.0705
     36 H2          4.0461    3.0235   23.0345 H           1 YKI       0.0763
     37 H3          4.9169    4.0915   25.5287 H           1 YKI       0.2328
     38 H4          3.2858    7.7353   22.1063 H           1 YKI       0.0643
     39 H5          4.4966    6.2226   31.1668 H           1 YKI       0.1910
     40 H6          0.9333    3.2134   36.0014 H           1 YKI       0.2313
     41 H7          6.5873    7.4980   30.3091 H           1 YKI       0.0605
     42 H8          8.0685    6.6058   28.6039 H           1 YKI       0.0605
     43 H9          7.2017    5.9605   26.4411 H           1 YKI       0.0619
     44 H10         5.2345    5.9714   33.2185 H           1 YKI       0.0656
     45 H11         5.5057    4.3533   34.9938 H           1 YKI       0.0758
     46 H12         4.0099    8.8268   30.3987 H           1 YKI       0.0919
     47 H13         2.1171    6.6508   26.0254 H           1 YKI       0.0603
     48 H14        -0.1305    7.3832   26.5238 H           1 YKI       0.0563
     49 H15        -0.6371    8.4042   28.6671 H           1 YKI       0.0597
     50 H16         1.1081    8.6512   30.3574 H           1 YKI       0.0566
     51 H17        -0.9396    4.2488   34.6989 H           1 YKI       0.0983
     52 H18         0.1070    5.8694   32.9699 H           1 YKI       0.0310
@<TRIPOS>BOND
     1     1     2  ar
     2     5     1  ar
     3     3     2  ar
     4    11     3  ar
     5     7     4   1
     6     4    11   1
     7     9     5  ar
     8     7     6   2
     9     6     9   1
    10    13     7   1
    11     8    17  am
    12    22     8   1
    13     9    11  ar
    14    21    10  ar
    15    10    32  ar
    16    32    12   1
    17    12    33   1
    18    16    13  ar
    19    13    24  ar
    20    14    15  ar
    21    23    14  ar
    22    15    16  ar
    23    17    18   1
    24    17    19   2
    25    18    20  ar
    26    18    31  ar
    27    20    21  ar
    28    22    23   1
    29    22    25   1
    30    23    24  ar
    31    24    26   1
    32    25    26  ar
    33    25    30  ar
    34    26    27  ar
    35    27    28  ar
    36    28    29  ar
    37    29    30  ar
    38    31    32  ar
    39    31    34   1
    40    33    34   2
    41     1    35   1
    42     3    36   1
    43     4    37   1
    44     5    38   1
    45     8    39   1
    46    12    40   1
    47    14    41   1
    48    15    42   1
    49    16    43   1
    50    20    44   1
    51    21    45   1
    52    22    46   1
    53    27    47   1
    54    28    48   1
    55    29    49   1
    56    30    50   1
    57    33    51   1
    58    34    52   1
@<TRIPOS>SUBSTRUCTURE
     1  YKI      1

