@<TRIPOS>MOLECULE
2yki_ligand_081
    52    58
SMALL
GAST_HUCK
****
This file was generated by PARSER (from files_GN.cpp)

@<TRIPOS>ATOM
      1 C1          0.3021   13.4425   22.7301 C.ar        1 YKI      -0.0069
      2 N1          0.5797   12.1092   22.8078 N.ar        1 YKI      -0.3145
      3 C2          1.6629   11.6212   23.4493 C.ar        1 YKI       0.0318
      4 N2          3.6947   12.3709   24.7117 N.pl3       1 YKI      -0.2421
      5 C3          1.1589   14.3790   23.3312 C.ar        1 YKI      -0.0358
      6 N3          3.3236   14.5229   24.5928 N.2         1 YKI      -0.2951
      7 C4          4.1853   13.5781   25.0067 C.2         1 YKI       0.1441
      8 N4         10.0670   13.0834   25.5507 N.am        1 YKI      -0.2584
      9 C5          2.3047   13.8974   23.9848 C.ar        1 YKI       0.0509
     10 N5         14.6398   15.2869   25.5066 N.ar        1 YKI      -0.2805
     11 C6          2.5471   12.5281   24.0462 C.ar        1 YKI       0.1092
     12 N6         14.8006   15.8154   27.8665 N.pl3       1 YKI      -0.2631
     13 C7          5.3992   13.7613   25.7019 C.ar        1 YKI       0.0361
     14 C8          7.6613   13.9156   27.4080 C.ar        1 YKI      -0.0512
     15 C9          6.5127   14.6534   27.7079 C.ar        1 YKI      -0.0623
     16 C10         5.3904   14.5859   26.8569 C.ar        1 YKI      -0.0499
     17 C11        10.9609   13.4246   26.4813 C.2         1 YKI       0.2116
     18 C12        12.1611   14.0763   26.1660 C.ar        1 YKI       0.0544
     19 O13        10.7499   13.1103   27.6379 O.2         1 YKI      -0.3825
     20 C14        12.6400   14.1235   24.8307 C.ar        1 YKI      -0.0315
     21 C15        13.8776   14.7204   24.5303 C.ar        1 YKI       0.0006
     22 C16         8.8589   12.3465   25.7514 C.3         1 YKI       0.1112
     23 C17         7.7173   13.1538   26.2254 C.ar        1 YKI       0.0062
     24 C18         6.6044   13.0708   25.3673 C.ar        1 YKI       0.0013
     25 C19         8.3143   11.8568   24.4807 C.ar        1 YKI       0.0020
     26 C20         6.9959   12.2830   24.2677 C.ar        1 YKI      -0.0129
     27 C21         6.3487   11.9382   23.0611 C.ar        1 YKI      -0.0610
     28 C22         7.0129   11.1362   22.1082 C.ar        1 YKI      -0.0680
     29 C23         8.3341   10.7069   22.3414 C.ar        1 YKI      -0.0680
     30 C24         8.9904   11.0584   23.5366 C.ar        1 YKI      -0.0553
     31 C25        12.9921   14.6884   27.1562 C.ar        1 YKI       0.0172
     32 C26        14.2073   15.2730   26.7880 C.ar        1 YKI       0.1409
     33 C27        14.0078   15.6124   28.9268 C.2         1 YKI       0.0293
     34 C28        12.8720   14.9094   28.5246 C.2         1 YKI      -0.0523
     35 H1         -0.5300   13.7517   22.2249 H           1 YKI       0.0705
     36 H2          1.8456   10.6182   23.4801 H           1 YKI       0.0763
     37 H3          4.1118   11.5147   24.8996 H           1 YKI       0.2328
     38 H4          0.9853   15.3902   23.2712 H           1 YKI       0.0643
     39 H5         10.2792   13.3073   24.6293 H           1 YKI       0.1910
     40 H6         15.6387   16.3021   27.8614 H           1 YKI       0.2313
     41 H7          8.4418   13.9426   28.0612 H           1 YKI       0.0605
     42 H8          6.4885   15.2215   28.5560 H           1 YKI       0.0605
     43 H9          4.5473   15.1053   27.1250 H           1 YKI       0.0619
     44 H10        12.1201   13.7070   24.0557 H           1 YKI       0.0656
     45 H11        14.1930   14.7642   23.5677 H           1 YKI       0.0758
     46 H12         9.0198   11.4914   26.4063 H           1 YKI       0.0919
     47 H13         5.4172   12.2732   22.8415 H           1 YKI       0.0603
     48 H14         6.5379   10.8840   21.2417 H           1 YKI       0.0563
     49 H15         8.8173   10.1396   21.6413 H           1 YKI       0.0597
     50 H16         9.9452   10.7511   23.7105 H           1 YKI       0.0566
     51 H17        14.1968   15.9429   29.8761 H           1 YKI       0.0983
     52 H18        12.0955   14.6551   29.1379 H           1 YKI       0.0310
@<TRIPOS>BOND
     1     1     2  ar
     2     5     1  ar
     3     3     2  ar
     4    11     3  ar
     5     7     4   1
     6     4    11   1
     7     9     5  ar
     8     7     6   2
     9     6     9   1
    10    13     7   1
    11     8    17  am
    12    22     8   1
    13     9    11  ar
    14    21    10  ar
    15    10    32  ar
    16    32    12   1
    17    12    33   1
    18    16    13  ar
    19    13    24  ar
    20    14    15  ar
    21    23    14  ar
    22    15    16  ar
    23    17    18   1
    24    17    19   2
    25    18    20  ar
    26    18    31  ar
    27    20    21  ar
    28    22    23   1
    29    22    25   1
    30    23    24  ar
    31    24    26   1
    32    25    26  ar
    33    25    30  ar
    34    26    27  ar
    35    27    28  ar
    36    28    29  ar
    37    29    30  ar
    38    31    32  ar
    39    31    34   1
    40    33    34   2
    41     1    35   1
    42     3    36   1
    43     4    37   1
    44     5    38   1
    45     8    39   1
    46    12    40   1
    47    14    41   1
    48    15    42   1
    49    16    43   1
    50    20    44   1
    51    21    45   1
    52    22    46   1
    53    27    47   1
    54    28    48   1
    55    29    49   1
    56    30    50   1
    57    33    51   1
    58    34    52   1
@<TRIPOS>SUBSTRUCTURE
     1  YKI      1

