@<TRIPOS>MOLECULE
2yki_ligand_052
    52    58
SMALL
GAST_HUCK
****
This file was generated by PARSER (from files_GN.cpp)

@<TRIPOS>ATOM
      1 C1          2.5090    2.4110   23.7291 C.ar        1 YKI      -0.0069
      2 N1          3.8246    2.6233   23.4313 N.ar        1 YKI      -0.3145
      3 C2          4.7474    2.9895   24.3613 C.ar        1 YKI       0.0318
      4 N2          4.9586    3.5116   26.8053 N.pl3       1 YKI      -0.2421
      5 C3          2.0488    2.5698   25.0541 C.ar        1 YKI      -0.0358
      6 N3          2.8367    3.1935   27.3428 N.2         1 YKI      -0.2951
      7 C4          4.0527    3.5460   27.8039 C.2         1 YKI       0.1441
      8 N4          2.8701    6.4137   32.8458 N.am        1 YKI      -0.2584
      9 C5          2.9828    2.9540   26.0254 C.ar        1 YKI       0.0509
     10 N5         -0.0082    5.2683   36.8958 N.ar        1 YKI      -0.2805
     11 C6          4.3178    3.1600   25.6891 C.ar        1 YKI       0.1092
     12 N6          1.5326    6.9146   37.7897 N.pl3       1 YKI      -0.2631
     13 C7          4.3616    3.8608   29.1374 C.ar        1 YKI       0.0361
     14 C8          5.2151    4.4853   31.7682 C.ar        1 YKI      -0.0512
     15 C9          5.6557    3.2896   31.1455 C.ar        1 YKI      -0.0623
     16 C10         5.2287    2.9938   29.8400 C.ar        1 YKI      -0.0499
     17 C11         2.4192    5.3275   33.4598 C.2         1 YKI       0.2116
     18 C12         1.6115    5.3543   34.5828 C.ar        1 YKI       0.0544
     19 O13         2.7386    4.1988   33.0669 O.2         1 YKI      -0.3825
     20 C14         0.4696    4.5014   34.6755 C.ar        1 YKI      -0.0315
     21 C15        -0.3272    4.4852   35.8406 C.ar        1 YKI       0.0006
     22 C16         3.6703    6.5277   31.6482 C.3         1 YKI       0.1112
     23 C17         4.3095    5.3038   31.1024 C.ar        1 YKI       0.0062
     24 C18         3.8771    5.0222   29.7830 C.ar        1 YKI       0.0013
     25 C19         2.8767    6.9444   30.4833 C.ar        1 YKI       0.0020
     26 C20         3.0305    6.0677   29.3972 C.ar        1 YKI      -0.0129
     27 C21         2.3798    6.3460   28.1760 C.ar        1 YKI      -0.0610
     28 C22         1.5503    7.4808   28.0693 C.ar        1 YKI      -0.0680
     29 C23         1.3993    8.3550   29.1658 C.ar        1 YKI      -0.0680
     30 C24         2.0729    8.0982   30.3749 C.ar        1 YKI      -0.0553
     31 C25         1.8823    6.1677   35.7064 C.ar        1 YKI       0.0172
     32 C26         1.0725    6.0907   36.8431 C.ar        1 YKI       0.1409
     33 C27         2.6342    7.5286   37.3281 C.2         1 YKI       0.0293
     34 C28         2.8868    7.0901   36.0308 C.2         1 YKI      -0.0523
     35 H1          1.8623    2.1429   22.9868 H           1 YKI       0.0705
     36 H2          5.7216    3.1439   24.0983 H           1 YKI       0.0763
     37 H3          5.9043    3.7183   26.8775 H           1 YKI       0.2328
     38 H4          1.0677    2.4165   25.2946 H           1 YKI       0.0643
     39 H5          2.5564    7.2667   33.1953 H           1 YKI       0.1910
     40 H6          1.1289    7.0191   38.6644 H           1 YKI       0.2313
     41 H7          5.5197    4.6971   32.7293 H           1 YKI       0.0605
     42 H8          6.2915    2.6683   31.6361 H           1 YKI       0.0605
     43 H9          5.5592    2.1244   29.4076 H           1 YKI       0.0619
     44 H10         0.2015    3.8972   33.8959 H           1 YKI       0.0656
     45 H11        -1.1546    3.8823   35.8980 H           1 YKI       0.0758
     46 H12         4.4520    7.2675   31.8163 H           1 YKI       0.0919
     47 H13         2.5005    5.7542   27.3581 H           1 YKI       0.0603
     48 H14         1.0649    7.6796   27.1905 H           1 YKI       0.0563
     49 H15         0.8011    9.1826   29.0800 H           1 YKI       0.0597
     50 H16         1.9756    8.7398   31.1649 H           1 YKI       0.0566
     51 H17         3.2000    8.1995   37.8549 H           1 YKI       0.0983
     52 H18         3.6684    7.3802   35.4405 H           1 YKI       0.0310
@<TRIPOS>BOND
     1     1     2  ar
     2     5     1  ar
     3     3     2  ar
     4    11     3  ar
     5     7     4   1
     6     4    11   1
     7     9     5  ar
     8     7     6   2
     9     6     9   1
    10    13     7   1
    11     8    17  am
    12    22     8   1
    13     9    11  ar
    14    21    10  ar
    15    10    32  ar
    16    32    12   1
    17    12    33   1
    18    16    13  ar
    19    13    24  ar
    20    14    15  ar
    21    23    14  ar
    22    15    16  ar
    23    17    18   1
    24    17    19   2
    25    18    20  ar
    26    18    31  ar
    27    20    21  ar
    28    22    23   1
    29    22    25   1
    30    23    24  ar
    31    24    26   1
    32    25    26  ar
    33    25    30  ar
    34    26    27  ar
    35    27    28  ar
    36    28    29  ar
    37    29    30  ar
    38    31    32  ar
    39    31    34   1
    40    33    34   2
    41     1    35   1
    42     3    36   1
    43     4    37   1
    44     5    38   1
    45     8    39   1
    46    12    40   1
    47    14    41   1
    48    15    42   1
    49    16    43   1
    50    20    44   1
    51    21    45   1
    52    22    46   1
    53    27    47   1
    54    28    48   1
    55    29    49   1
    56    30    50   1
    57    33    51   1
    58    34    52   1
@<TRIPOS>SUBSTRUCTURE
     1  YKI      1

