@<TRIPOS>MOLECULE
2yki_ligand_022
    52    58
SMALL
GAST_HUCK
****
This file was generated by PARSER (from files_GN.cpp)

@<TRIPOS>ATOM
      1 C1          9.2283   11.5881   23.9023 C.ar        1 YKI      -0.0069
      2 N1          9.2911   10.9755   22.6856 N.ar        1 YKI      -0.3145
      3 C2          8.2249   10.3586   22.1055 C.ar        1 YKI       0.0318
      4 N2          5.8061    9.8327   22.5228 N.pl3       1 YKI      -0.2421
      5 C3          8.0179   11.6017   24.6252 C.ar        1 YKI      -0.0358
      6 N3          5.6485   10.8071   24.4930 N.2         1 YKI      -0.2951
      7 C4          4.9876   10.0888   23.5596 C.2         1 YKI       0.1441
      8 N4          0.6460    6.1510   23.6178 N.am        1 YKI      -0.2584
      9 C5          6.9049   10.9611   24.0489 C.ar        1 YKI       0.0509
     10 N5         -1.5266    3.1178   26.9715 N.ar        1 YKI      -0.2805
     11 C6          7.0064   10.3469   22.8038 C.ar        1 YKI       0.1092
     12 N6         -1.0485    1.1923   25.5477 N.pl3       1 YKI      -0.2631
     13 C7          3.6254    9.7333   23.6077 C.ar        1 YKI       0.0361
     14 C8          0.8263    9.2123   23.5699 C.ar        1 YKI      -0.0512
     15 C9          1.3136   10.4408   24.0479 C.ar        1 YKI      -0.0623
     16 C10         2.6969   10.6972   24.0722 C.ar        1 YKI      -0.0499
     17 C11         1.0662    5.2004   24.4436 C.2         1 YKI       0.2116
     18 C12         0.1695    4.5241   25.2388 C.ar        1 YKI       0.0544
     19 O13         2.2470    4.8842   24.5534 O.2         1 YKI      -0.3825
     20 C14        -0.4728    5.1804   26.3176 C.ar        1 YKI      -0.0315
     21 C15        -1.3114    4.4464   27.1812 C.ar        1 YKI       0.0006
     22 C16         1.4074    6.8906   22.6477 C.3         1 YKI       0.1112
     23 C17         1.7447    8.2391   23.1370 C.ar        1 YKI       0.0062
     24 C18         3.1306    8.4773   23.1591 C.ar        1 YKI       0.0013
     25 C19         2.7571    6.3976   22.3129 C.ar        1 YKI       0.0020
     26 C20         3.7522    7.3055   22.7009 C.ar        1 YKI      -0.0129
     27 C21         5.1046    6.8940   22.6765 C.ar        1 YKI      -0.0610
     28 C22         5.4340    5.6126   22.1912 C.ar        1 YKI      -0.0680
     29 C23         4.4239    4.7367   21.7462 C.ar        1 YKI      -0.0680
     30 C24         3.0765    5.1243   21.8026 C.ar        1 YKI      -0.0553
     31 C25        -0.0943    3.1489   25.0540 C.ar        1 YKI       0.0172
     32 C26        -0.9454    2.4745   25.9309 C.ar        1 YKI       0.1409
     33 C27        -0.3060    1.0058   24.4425 C.2         1 YKI       0.0293
     34 C28         0.3078    2.2102   24.1056 C.2         1 YKI      -0.0523
     35 H1         10.0608   12.0369   24.2856 H           1 YKI       0.0705
     36 H2          8.3133    9.9140   21.1909 H           1 YKI       0.0763
     37 H3          5.5616    9.3581   21.7143 H           1 YKI       0.2328
     38 H4          7.9504   12.0573   25.5357 H           1 YKI       0.0643
     39 H5         -0.2988    6.3640   23.6380 H           1 YKI       0.1910
     40 H6         -1.5827    0.5120   25.9878 H           1 YKI       0.2313
     41 H7         -0.1765    9.0284   23.5490 H           1 YKI       0.0605
     42 H8          0.6570   11.1579   24.3718 H           1 YKI       0.0605
     43 H9          3.0179   11.6144   24.3953 H           1 YKI       0.0619
     44 H10        -0.3074    6.1733   26.5050 H           1 YKI       0.0656
     45 H11        -1.7559    4.9098   27.9754 H           1 YKI       0.0758
     46 H12         0.8171    6.9538   21.7356 H           1 YKI       0.0919
     47 H13         5.8407    7.4862   23.0486 H           1 YKI       0.0603
     48 H14         6.4070    5.2984   22.2007 H           1 YKI       0.0563
     49 H15         4.6692    3.7948   21.4212 H           1 YKI       0.0597
     50 H16         2.3359    4.4738   21.5310 H           1 YKI       0.0566
     51 H17        -0.2193    0.1273   23.9284 H           1 YKI       0.0983
     52 H18         0.9171    2.3734   23.3019 H           1 YKI       0.0310
@<TRIPOS>BOND
     1     1     2  ar
     2     5     1  ar
     3     3     2  ar
     4    11     3  ar
     5     7     4   1
     6     4    11   1
     7     9     5  ar
     8     7     6   2
     9     6     9   1
    10    13     7   1
    11     8    17  am
    12    22     8   1
    13     9    11  ar
    14    21    10  ar
    15    10    32  ar
    16    32    12   1
    17    12    33   1
    18    16    13  ar
    19    13    24  ar
    20    14    15  ar
    21    23    14  ar
    22    15    16  ar
    23    17    18   1
    24    17    19   2
    25    18    20  ar
    26    18    31  ar
    27    20    21  ar
    28    22    23   1
    29    22    25   1
    30    23    24  ar
    31    24    26   1
    32    25    26  ar
    33    25    30  ar
    34    26    27  ar
    35    27    28  ar
    36    28    29  ar
    37    29    30  ar
    38    31    32  ar
    39    31    34   1
    40    33    34   2
    41     1    35   1
    42     3    36   1
    43     4    37   1
    44     5    38   1
    45     8    39   1
    46    12    40   1
    47    14    41   1
    48    15    42   1
    49    16    43   1
    50    20    44   1
    51    21    45   1
    52    22    46   1
    53    27    47   1
    54    28    48   1
    55    29    49   1
    56    30    50   1
    57    33    51   1
    58    34    52   1
@<TRIPOS>SUBSTRUCTURE
     1  YKI      1

