@<TRIPOS>MOLECULE
2yki_ligand_060
    52    58
SMALL
GAST_HUCK
****
This file was generated by PARSER (from files_GN.cpp)

@<TRIPOS>ATOM
      1 C1          6.0608    3.8436   22.3876 C.ar        1 YKI      -0.0069
      2 N1          5.4025    4.9567   21.9563 N.ar        1 YKI      -0.3145
      3 C2          5.0333    5.9713   22.7853 C.ar        1 YKI       0.0318
      4 N2          5.1251    6.6559   25.2007 N.pl3       1 YKI      -0.2421
      5 C3          6.3940    3.7013   23.7525 C.ar        1 YKI      -0.0358
      6 N3          6.1976    4.8760   25.9456 N.2         1 YKI      -0.2951
      7 C4          5.6229    6.0457   26.2950 C.2         1 YKI       0.1441
      8 N4          2.9434    7.5575   31.3264 N.am        1 YKI      -0.2584
      9 C5          6.0181    4.7367   24.6225 C.ar        1 YKI       0.0509
     10 N5          2.2425    5.3733   35.7677 N.ar        1 YKI      -0.2805
     11 C6          5.3441    5.8595   24.1511 C.ar        1 YKI       0.1092
     12 N6          4.6445    5.2855   36.1874 N.pl3       1 YKI      -0.2631
     13 C7          5.6332    6.5999   27.5896 C.ar        1 YKI       0.0361
     14 C8          5.8407    7.9477   30.0868 C.ar        1 YKI      -0.0512
     15 C9          6.9848    7.4056   29.4796 C.ar        1 YKI      -0.0623
     16 C10         6.8802    6.7326   28.2486 C.ar        1 YKI      -0.0499
     17 C11         3.3263    6.3965   31.8512 C.2         1 YKI       0.2116
     18 C12         2.9682    6.0784   33.1448 C.ar        1 YKI       0.0544
     19 O13         4.0347    5.6004   31.2491 O.2         1 YKI      -0.3825
     20 C14         1.6064    6.0038   33.5323 C.ar        1 YKI      -0.0315
     21 C15         1.2699    5.6323   34.8523 C.ar        1 YKI       0.0006
     22 C16         3.2780    8.1308   30.0491 C.3         1 YKI       0.1112
     23 C17         4.5879    7.7597   29.4728 C.ar        1 YKI       0.0062
     24 C18         4.4694    7.0887   28.2445 C.ar        1 YKI       0.0013
     25 C19         2.3888    7.6435   28.9843 C.ar        1 YKI       0.0020
     26 C20         3.0974    7.0138   27.9493 C.ar        1 YKI      -0.0129
     27 C21         2.3870    6.4169   26.8848 C.ar        1 YKI      -0.0610
     28 C22         0.9832    6.5208   26.8368 C.ar        1 YKI      -0.0680
     29 C23         0.2839    7.1926   27.8587 C.ar        1 YKI      -0.0680
     30 C24         0.9841    7.7517   28.9451 C.ar        1 YKI      -0.0553
     31 C25         3.9422    5.8057   34.1344 C.ar        1 YKI       0.0172
     32 C26         3.5518    5.4626   35.4292 C.ar        1 YKI       0.1409
     33 C27         5.7369    5.5115   35.4384 C.2         1 YKI       0.0293
     34 C28         5.3352    5.8332   34.1441 C.2         1 YKI      -0.0523
     35 H1          6.3117    3.1135   21.7196 H           1 YKI       0.0705
     36 H2          4.5432    6.7868   22.4219 H           1 YKI       0.0763
     37 H3          4.6846    7.5215   25.1793 H           1 YKI       0.2328
     38 H4          6.8860    2.8741   24.0960 H           1 YKI       0.0643
     39 H5          2.3988    8.1215   31.9001 H           1 YKI       0.1910
     40 H6          4.6459    5.0526   37.1269 H           1 YKI       0.2313
     41 H7          5.9145    8.4278   30.9869 H           1 YKI       0.0605
     42 H8          7.8969    7.5105   29.9287 H           1 YKI       0.0605
     43 H9          7.7344    6.3788   27.8192 H           1 YKI       0.0619
     44 H10         0.8571    6.1903   32.8613 H           1 YKI       0.0656
     45 H11         0.2887    5.5547   35.1302 H           1 YKI       0.0758
     46 H12         3.2116    9.2193   30.1166 H           1 YKI       0.0919
     47 H13         2.8655    5.8980   26.1534 H           1 YKI       0.0603
     48 H14         0.4676    6.1001   26.0600 H           1 YKI       0.0563
     49 H15        -0.7366    7.2652   27.8167 H           1 YKI       0.0597
     50 H16         0.4764    8.2200   29.6975 H           1 YKI       0.0566
     51 H17         6.7015    5.4690   35.7687 H           1 YKI       0.0983
     52 H18         5.9507    6.0723   33.3630 H           1 YKI       0.0310
@<TRIPOS>BOND
     1     1     2  ar
     2     5     1  ar
     3     3     2  ar
     4    11     3  ar
     5     7     4   1
     6     4    11   1
     7     9     5  ar
     8     7     6   2
     9     6     9   1
    10    13     7   1
    11     8    17  am
    12    22     8   1
    13     9    11  ar
    14    21    10  ar
    15    10    32  ar
    16    32    12   1
    17    12    33   1
    18    16    13  ar
    19    13    24  ar
    20    14    15  ar
    21    23    14  ar
    22    15    16  ar
    23    17    18   1
    24    17    19   2
    25    18    20  ar
    26    18    31  ar
    27    20    21  ar
    28    22    23   1
    29    22    25   1
    30    23    24  ar
    31    24    26   1
    32    25    26  ar
    33    25    30  ar
    34    26    27  ar
    35    27    28  ar
    36    28    29  ar
    37    29    30  ar
    38    31    32  ar
    39    31    34   1
    40    33    34   2
    41     1    35   1
    42     3    36   1
    43     4    37   1
    44     5    38   1
    45     8    39   1
    46    12    40   1
    47    14    41   1
    48    15    42   1
    49    16    43   1
    50    20    44   1
    51    21    45   1
    52    22    46   1
    53    27    47   1
    54    28    48   1
    55    29    49   1
    56    30    50   1
    57    33    51   1
    58    34    52   1
@<TRIPOS>SUBSTRUCTURE
     1  YKI      1

