@<TRIPOS>MOLECULE
2yki_ligand_078
    52    58
SMALL
GAST_HUCK
****
This file was generated by PARSER (from files_GN.cpp)

@<TRIPOS>ATOM
      1 C1          9.2098    3.0143   22.2272 C.ar        1 YKI      -0.0069
      2 N1          8.1010    3.7936   22.0760 N.ar        1 YKI      -0.3145
      3 C2          7.1539    3.9402   23.0439 C.ar        1 YKI       0.0318
      4 N2          6.5912    3.1652   25.3668 N.pl3       1 YKI      -0.2421
      5 C3          9.4183    2.3073   23.4298 C.ar        1 YKI      -0.0358
      6 N3          8.3744    1.9064   25.6645 N.2         1 YKI      -0.2951
      7 C4          7.2441    2.3722   26.2378 C.2         1 YKI       0.1441
      8 N4          5.3209    3.3858   31.7149 N.am        1 YKI      -0.2584
      9 C5          8.4513    2.4463   24.4402 C.ar        1 YKI       0.0509
     10 N5          1.3560    4.0865   34.6515 N.ar        1 YKI      -0.2805
     11 C6          7.3284    3.2487   24.2532 C.ar        1 YKI       0.1092
     12 N6          1.1032    6.2609   33.5786 N.pl3       1 YKI      -0.2631
     13 C7          6.8090    1.9694   27.5171 C.ar        1 YKI       0.0361
     14 C8          6.2190    0.9254   30.0962 C.ar        1 YKI      -0.0512
     15 C9          6.2306    0.0755   28.9756 C.ar        1 YKI      -0.0623
     16 C10         6.5408    0.5892   27.7013 C.ar        1 YKI      -0.0499
     17 C11         5.1285    4.0247   32.8596 C.2         1 YKI       0.2116
     18 C12         3.8817    4.0436   33.4342 C.ar        1 YKI       0.0544
     19 O13         6.0310    4.5578   33.4873 O.2         1 YKI      -0.3825
     20 C14         3.4487    2.9635   34.2377 C.ar        1 YKI      -0.0315
     21 C15         2.1733    3.0159   34.8426 C.ar        1 YKI       0.0006
     22 C16         6.5576    3.3025   30.9972 C.3         1 YKI       0.1112
     23 C17         6.4729    2.2990   29.9208 C.ar        1 YKI       0.0062
     24 C18         6.7206    2.8363   28.6441 C.ar        1 YKI       0.0013
     25 C19         6.8487    4.5069   30.1949 C.ar        1 YKI       0.0020
     26 C20         6.9102    4.2155   28.8221 C.ar        1 YKI      -0.0129
     27 C21         7.0834    5.2654   27.8985 C.ar        1 YKI      -0.0610
     28 C22         7.2226    6.5874   28.3579 C.ar        1 YKI      -0.0680
     29 C23         7.2173    6.8628   29.7363 C.ar        1 YKI      -0.0680
     30 C24         7.0398    5.8237   30.6646 C.ar        1 YKI      -0.0553
     31 C25         3.0079    5.1407   33.2653 C.ar        1 YKI       0.0172
     32 C26         1.7523    5.1275   33.8801 C.ar        1 YKI       0.1409
     33 C27         1.8842    7.0100   32.7794 C.2         1 YKI       0.0293
     34 C28         3.0844    6.3379   32.5593 C.2         1 YKI      -0.0523
     35 H1          9.8842    2.9457   21.4631 H           1 YKI       0.0705
     36 H2          6.3424    4.5375   22.8880 H           1 YKI       0.0763
     37 H3          5.7433    3.6096   25.5260 H           1 YKI       0.2328
     38 H4         10.2393    1.7146   23.5605 H           1 YKI       0.0643
     39 H5          4.5495    2.9307   31.3252 H           1 YKI       0.1910
     40 H6          0.2270    6.5188   33.9064 H           1 YKI       0.2313
     41 H7          6.0308    0.5418   31.0277 H           1 YKI       0.0605
     42 H8          6.0338   -0.9230   29.0868 H           1 YKI       0.0605
     43 H9          6.5763   -0.0585   26.9058 H           1 YKI       0.0619
     44 H10         4.0563    2.1536   34.3910 H           1 YKI       0.0656
     45 H11         1.8544    2.2454   35.4288 H           1 YKI       0.0758
     46 H12         7.3944    3.0518   31.6636 H           1 YKI       0.0919
     47 H13         7.1007    5.0925   26.8982 H           1 YKI       0.0603
     48 H14         7.3380    7.3466   27.6895 H           1 YKI       0.0563
     49 H15         7.3247    7.8225   30.0661 H           1 YKI       0.0597
     50 H16         7.0416    6.0382   31.6625 H           1 YKI       0.0566
     51 H17         1.6333    7.9299   32.4097 H           1 YKI       0.0983
     52 H18         3.8721    6.6675   31.9965 H           1 YKI       0.0310
@<TRIPOS>BOND
     1     1     2  ar
     2     5     1  ar
     3     3     2  ar
     4    11     3  ar
     5     7     4   1
     6     4    11   1
     7     9     5  ar
     8     7     6   2
     9     6     9   1
    10    13     7   1
    11     8    17  am
    12    22     8   1
    13     9    11  ar
    14    21    10  ar
    15    10    32  ar
    16    32    12   1
    17    12    33   1
    18    16    13  ar
    19    13    24  ar
    20    14    15  ar
    21    23    14  ar
    22    15    16  ar
    23    17    18   1
    24    17    19   2
    25    18    20  ar
    26    18    31  ar
    27    20    21  ar
    28    22    23   1
    29    22    25   1
    30    23    24  ar
    31    24    26   1
    32    25    26  ar
    33    25    30  ar
    34    26    27  ar
    35    27    28  ar
    36    28    29  ar
    37    29    30  ar
    38    31    32  ar
    39    31    34   1
    40    33    34   2
    41     1    35   1
    42     3    36   1
    43     4    37   1
    44     5    38   1
    45     8    39   1
    46    12    40   1
    47    14    41   1
    48    15    42   1
    49    16    43   1
    50    20    44   1
    51    21    45   1
    52    22    46   1
    53    27    47   1
    54    28    48   1
    55    29    49   1
    56    30    50   1
    57    33    51   1
    58    34    52   1
@<TRIPOS>SUBSTRUCTURE
     1  YKI      1

