@<TRIPOS>MOLECULE
2yki_ligand_044
    52    58
SMALL
GAST_HUCK
****
This file was generated by PARSER (from files_GN.cpp)

@<TRIPOS>ATOM
      1 C1          7.2770   -1.1940   22.9822 C.ar        1 YKI      -0.0069
      2 N1          8.5773   -0.7841   22.9824 N.ar        1 YKI      -0.3145
      3 C2          8.9473    0.5115   23.1802 C.ar        1 YKI       0.0318
      4 N2          7.9738    2.7788   23.6197 N.pl3       1 YKI      -0.2421
      5 C3          6.2386   -0.2620   23.1923 C.ar        1 YKI      -0.0358
      6 N3          5.8493    2.1749   23.6155 N.2         1 YKI      -0.2951
      7 C4          6.7050    3.2115   23.7370 C.2         1 YKI       0.1441
      8 N4          3.5569    8.0371   22.7394 N.am        1 YKI      -0.2584
      9 C5          6.5975    1.0816   23.3933 C.ar        1 YKI       0.0509
     10 N5         -0.5949   10.4817   24.1648 N.ar        1 YKI      -0.2805
     11 C6          7.9368    1.4635   23.3909 C.ar        1 YKI       0.1092
     12 N6          0.2064   12.7095   23.6154 N.pl3       1 YKI      -0.2631
     13 C7          6.3678    4.5385   24.0227 C.ar        1 YKI       0.0361
     14 C8          5.9056    7.2566   24.6915 C.ar        1 YKI      -0.0512
     15 C9          6.5712    6.4169   25.5947 C.ar        1 YKI      -0.0623
     16 C10         6.8031    5.0712   25.2624 C.ar        1 YKI      -0.0499
     17 C11         3.3273    9.2198   23.3082 C.2         1 YKI       0.2116
     18 C12         2.0320    9.6416   23.5850 C.ar        1 YKI       0.0544
     19 O13         4.2872    9.9344   23.6225 O.2         1 YKI      -0.3825
     20 C14         1.0267    8.7188   23.9776 C.ar        1 YKI      -0.0315
     21 C15        -0.2789    9.1660   24.2696 C.ar        1 YKI       0.0006
     22 C16         4.8354    7.5105   22.3715 C.3         1 YKI       0.1112
     23 C17         5.4785    6.7422   23.4546 C.ar        1 YKI       0.0062
     24 C18         5.6922    5.3951   23.1091 C.ar        1 YKI       0.0013
     25 C19         4.7005    6.4528   21.3602 C.ar        1 YKI       0.0020
     26 C20         5.1980    5.2198   21.8062 C.ar        1 YKI      -0.0129
     27 C21         5.1455    4.0970   20.9510 C.ar        1 YKI      -0.0610
     28 C22         4.6031    4.2322   19.6546 C.ar        1 YKI      -0.0680
     29 C23         4.1161    5.4796   19.2117 C.ar        1 YKI      -0.0680
     30 C24         4.1614    6.5967   20.0669 C.ar        1 YKI      -0.0553
     31 C25         1.6493   11.0076   23.5063 C.ar        1 YKI       0.0172
     32 C26         0.3370   11.3866   23.7913 C.ar        1 YKI       0.1409
     33 C27         1.3867   13.2107   23.2194 C.2         1 YKI       0.0293
     34 C28         2.3133   12.1801   23.1434 C.2         1 YKI      -0.0523
     35 H1          7.0624   -2.1793   22.8352 H           1 YKI       0.0705
     36 H2          9.9344    0.7805   23.1802 H           1 YKI       0.0763
     37 H3          8.7731    3.3242   23.6869 H           1 YKI       0.2328
     38 H4          5.2607   -0.5525   23.2033 H           1 YKI       0.0643
     39 H5          2.7758    7.5176   22.4789 H           1 YKI       0.1910
     40 H6         -0.6104   13.2168   23.7334 H           1 YKI       0.2313
     41 H7          5.7429    8.2429   24.9342 H           1 YKI       0.0605
     42 H8          6.8997    6.7885   26.4939 H           1 YKI       0.0605
     43 H9          7.2938    4.4836   25.9419 H           1 YKI       0.0619
     44 H10         1.2387    7.7252   24.0872 H           1 YKI       0.0656
     45 H11        -0.9877    8.5014   24.5750 H           1 YKI       0.0758
     46 H12         5.5096    8.2873   21.9910 H           1 YKI       0.0919
     47 H13         5.5010    3.1893   21.2417 H           1 YKI       0.0603
     48 H14         4.5695    3.4273   19.0256 H           1 YKI       0.0563
     49 H15         3.7310    5.5744   18.2705 H           1 YKI       0.0597
     50 H16         3.8056    7.5016   19.7496 H           1 YKI       0.0566
     51 H17         1.5691   14.1894   22.9898 H           1 YKI       0.0983
     52 H18         3.2873   12.2764   22.8470 H           1 YKI       0.0310
@<TRIPOS>BOND
     1     1     2  ar
     2     5     1  ar
     3     3     2  ar
     4    11     3  ar
     5     7     4   1
     6     4    11   1
     7     9     5  ar
     8     7     6   2
     9     6     9   1
    10    13     7   1
    11     8    17  am
    12    22     8   1
    13     9    11  ar
    14    21    10  ar
    15    10    32  ar
    16    32    12   1
    17    12    33   1
    18    16    13  ar
    19    13    24  ar
    20    14    15  ar
    21    23    14  ar
    22    15    16  ar
    23    17    18   1
    24    17    19   2
    25    18    20  ar
    26    18    31  ar
    27    20    21  ar
    28    22    23   1
    29    22    25   1
    30    23    24  ar
    31    24    26   1
    32    25    26  ar
    33    25    30  ar
    34    26    27  ar
    35    27    28  ar
    36    28    29  ar
    37    29    30  ar
    38    31    32  ar
    39    31    34   1
    40    33    34   2
    41     1    35   1
    42     3    36   1
    43     4    37   1
    44     5    38   1
    45     8    39   1
    46    12    40   1
    47    14    41   1
    48    15    42   1
    49    16    43   1
    50    20    44   1
    51    21    45   1
    52    22    46   1
    53    27    47   1
    54    28    48   1
    55    29    49   1
    56    30    50   1
    57    33    51   1
    58    34    52   1
@<TRIPOS>SUBSTRUCTURE
     1  YKI      1

