@<TRIPOS>MOLECULE
2yki_ligand_074
    52    58
SMALL
GAST_HUCK
****
This file was generated by PARSER (from files_GN.cpp)

@<TRIPOS>ATOM
      1 C1          1.5969   12.0292   24.3804 C.ar        1 YKI      -0.0069
      2 N1          0.4433   11.9704   23.6555 N.ar        1 YKI      -0.3145
      3 C2         -0.3802   10.8867   23.6605 C.ar        1 YKI       0.0318
      4 N2         -0.6128    8.6136   24.6664 N.pl3       1 YKI      -0.2421
      5 C3          1.9927   10.9363   25.1813 C.ar        1 YKI      -0.0358
      6 N3          1.2479    8.6355   25.8550 N.2         1 YKI      -0.2951
      7 C4          0.1584    7.9156   25.5150 C.2         1 YKI       0.1441
      8 N4          1.5616    2.3276   25.8990 N.am        1 YKI      -0.2584
      9 C5          1.1534    9.8084   25.2042 C.ar        1 YKI       0.0509
     10 N5          5.2722    0.0722   28.3336 N.ar        1 YKI      -0.2805
     11 C6         -0.0200    9.7892   24.4539 C.ar        1 YKI       0.1092
     12 N6          6.9190    1.1775   26.9037 N.pl3       1 YKI      -0.2631
     13 C7         -0.1561    6.6282   25.9743 C.ar        1 YKI       0.0361
     14 C8         -0.7590    4.0693   27.0509 C.ar        1 YKI      -0.0512
     15 C9         -1.2103    5.2325   27.6960 C.ar        1 YKI      -0.0623
     16 C10        -0.9035    6.5023   27.1691 C.ar        1 YKI      -0.0499
     17 C11         2.5660    2.7835   26.6437 C.2         1 YKI       0.2116
     18 C12         3.4501    1.8939   27.2185 C.ar        1 YKI       0.0544
     19 O13         2.7849    3.9813   26.7863 O.2         1 YKI      -0.3825
     20 C14         3.0266    0.9258   28.1598 C.ar        1 YKI      -0.0315
     21 C15         3.9655    0.0271   28.7158 C.ar        1 YKI       0.0006
     22 C16         0.6236    3.0944   25.1211 C.3         1 YKI       0.1112
     23 C17        -0.0116    4.1926   25.8670 C.ar        1 YKI       0.0062
     24 C18         0.2731    5.4527   25.3114 C.ar        1 YKI       0.0013
     25 C19         1.2332    3.8582   24.0196 C.ar        1 YKI       0.0020
     26 C20         1.0147    5.2392   24.1419 C.ar        1 YKI      -0.0129
     27 C21         1.4965    6.1181   23.1460 C.ar        1 YKI      -0.0610
     28 C22         2.1911    5.5942   22.0387 C.ar        1 YKI      -0.0680
     29 C23         2.4055    4.2069   21.9243 C.ar        1 YKI      -0.0680
     30 C24         1.9277    3.3296   22.9164 C.ar        1 YKI      -0.0553
     31 C25         4.8196    1.9071   26.8623 C.ar        1 YKI       0.0172
     32 C26         5.6985    0.9831   27.4259 C.ar        1 YKI       0.1409
     33 C27         6.8686    2.1857   26.0168 C.2         1 YKI       0.0293
     34 C28         5.5663    2.6709   25.9689 C.2         1 YKI      -0.0523
     35 H1          2.1769   12.8695   24.3315 H           1 YKI       0.0705
     36 H2         -1.2356   10.8701   23.1028 H           1 YKI       0.0763
     37 H3         -1.4416    8.3110   24.2687 H           1 YKI       0.2328
     38 H4          2.8619   10.9614   25.7218 H           1 YKI       0.0643
     39 H5          1.4688    1.3600   25.8489 H           1 YKI       0.1910
     40 H6          7.7091    0.6615   27.1148 H           1 YKI       0.2313
     41 H7         -0.9419    3.1462   27.4508 H           1 YKI       0.0605
     42 H8         -1.7416    5.1548   28.5649 H           1 YKI       0.0605
     43 H9         -1.2200    7.3356   27.6760 H           1 YKI       0.0619
     44 H10         2.0511    0.8776   28.4565 H           1 YKI       0.0656
     45 H11         3.6703   -0.6601   29.4092 H           1 YKI       0.0758
     46 H12        -0.1424    2.4255   24.7127 H           1 YKI       0.0919
     47 H13         1.3414    7.1255   23.2028 H           1 YKI       0.0603
     48 H14         2.5351    6.2223   21.3087 H           1 YKI       0.0563
     49 H15         2.8987    3.8316   21.1107 H           1 YKI       0.0597
     50 H16         2.0621    2.3200   22.8246 H           1 YKI       0.0566
     51 H17         7.6501    2.5225   25.4538 H           1 YKI       0.0983
     52 H18         5.2220    3.4298   25.3767 H           1 YKI       0.0310
@<TRIPOS>BOND
     1     1     2  ar
     2     5     1  ar
     3     3     2  ar
     4    11     3  ar
     5     7     4   1
     6     4    11   1
     7     9     5  ar
     8     7     6   2
     9     6     9   1
    10    13     7   1
    11     8    17  am
    12    22     8   1
    13     9    11  ar
    14    21    10  ar
    15    10    32  ar
    16    32    12   1
    17    12    33   1
    18    16    13  ar
    19    13    24  ar
    20    14    15  ar
    21    23    14  ar
    22    15    16  ar
    23    17    18   1
    24    17    19   2
    25    18    20  ar
    26    18    31  ar
    27    20    21  ar
    28    22    23   1
    29    22    25   1
    30    23    24  ar
    31    24    26   1
    32    25    26  ar
    33    25    30  ar
    34    26    27  ar
    35    27    28  ar
    36    28    29  ar
    37    29    30  ar
    38    31    32  ar
    39    31    34   1
    40    33    34   2
    41     1    35   1
    42     3    36   1
    43     4    37   1
    44     5    38   1
    45     8    39   1
    46    12    40   1
    47    14    41   1
    48    15    42   1
    49    16    43   1
    50    20    44   1
    51    21    45   1
    52    22    46   1
    53    27    47   1
    54    28    48   1
    55    29    49   1
    56    30    50   1
    57    33    51   1
    58    34    52   1
@<TRIPOS>SUBSTRUCTURE
     1  YKI      1

