@<TRIPOS>MOLECULE
2yki_ligand_033
    52    58
SMALL
GAST_HUCK
****
This file was generated by PARSER (from files_GN.cpp)

@<TRIPOS>ATOM
      1 C1          5.2497   10.5383   24.9317 C.ar        1 YKI      -0.0069
      2 N1          6.3915   10.3458   24.2083 N.ar        1 YKI      -0.3145
      3 C2          6.6363    9.2079   23.4998 C.ar        1 YKI       0.0318
      4 N2          5.5958    6.9994   22.9129 N.pl3       1 YKI      -0.2421
      5 C3          4.2617    9.5323   24.9775 C.ar        1 YKI      -0.0358
      6 N3          3.7438    7.2583   24.0860 N.2         1 YKI      -0.2951
      7 C4          4.4173    6.4401   23.2522 C.2         1 YKI       0.1441
      8 N4          3.8458    2.3871   19.0489 N.am        1 YKI      -0.2584
      9 C5          4.4954    8.3584   24.2440 C.ar        1 YKI       0.0509
     10 N5          6.9884   -0.9269   16.9543 N.ar        1 YKI      -0.2805
     11 C6          5.6663    8.1929   23.5068 C.ar        1 YKI       0.1092
     12 N6          5.4036   -0.4453   15.1749 N.pl3       1 YKI      -0.2631
     13 C7          3.9426    5.1832   22.8319 C.ar        1 YKI       0.0361
     14 C8          3.0132    2.5906   22.1097 C.ar        1 YKI      -0.0512
     15 C9          3.2423    2.9093   23.4592 C.ar        1 YKI      -0.0623
     16 C10         3.7068    4.1913   23.8171 C.ar        1 YKI      -0.0499
     17 C11         5.1699    2.2782   19.0061 C.2         1 YKI       0.2116
     18 C12         5.7785    1.2371   18.3056 C.ar        1 YKI       0.0544
     19 O13         5.8722    3.0603   19.6352 O.2         1 YKI      -0.3825
     20 C14         6.8730    0.5268   18.8697 C.ar        1 YKI      -0.0315
     21 C15         7.4532   -0.5582   18.1771 C.ar        1 YKI       0.0006
     22 C16         3.0534    3.4101   19.6739 C.3         1 YKI       0.1112
     23 C17         3.2448    3.5707   21.1270 C.ar        1 YKI       0.0062
     24 C18         3.6867    4.8597   21.4722 C.ar        1 YKI       0.0013
     25 C19         3.3765    4.7690   19.2177 C.ar        1 YKI       0.0020
     26 C20         3.7289    5.6101   20.2855 C.ar        1 YKI      -0.0129
     27 C21         3.9759    6.9796   20.0354 C.ar        1 YKI      -0.0610
     28 C22         3.8970    7.4713   18.7154 C.ar        1 YKI      -0.0680
     29 C23         3.5867    6.6100   17.6459 C.ar        1 YKI      -0.0680
     30 C24         3.3122    5.2506   17.8952 C.ar        1 YKI      -0.0553
     31 C25         5.3490    0.8251   17.0176 C.ar        1 YKI       0.0172
     32 C26         5.9637   -0.2541   16.3762 C.ar        1 YKI       0.1409
     33 C27         4.4468    0.4818   14.9925 C.2         1 YKI       0.0293
     34 C28         4.3886    1.2925   16.1179 C.2         1 YKI      -0.0523
     35 H1          5.1190   11.4118   25.4486 H           1 YKI       0.0705
     36 H2          7.5017    9.1076   22.9662 H           1 YKI       0.0763
     37 H3          6.2668    6.6255   22.3238 H           1 YKI       0.2328
     38 H4          3.3996    9.6596   25.5156 H           1 YKI       0.0643
     39 H5          3.3436    1.6897   18.5994 H           1 YKI       0.1910
     40 H6          5.6571   -1.1263   14.5335 H           1 YKI       0.2313
     41 H7          2.6788    1.6612   21.8477 H           1 YKI       0.0605
     42 H8          3.0733    2.2071   24.1855 H           1 YKI       0.0605
     43 H9          3.8759    4.3905   24.8074 H           1 YKI       0.0619
     44 H10         7.2358    0.7673   19.7968 H           1 YKI       0.0656
     45 H11         8.2277   -1.0795   18.5910 H           1 YKI       0.0758
     46 H12         1.9965    3.2062   19.4739 H           1 YKI       0.0919
     47 H13         4.1797    7.6327   20.7927 H           1 YKI       0.0603
     48 H14         4.0557    8.4653   18.5391 H           1 YKI       0.0563
     49 H15         3.5350    6.9755   16.6923 H           1 YKI       0.0597
     50 H16         3.0555    4.6278   17.1255 H           1 YKI       0.0566
     51 H17         3.8733    0.5830   14.1528 H           1 YKI       0.0983
     52 H18         3.7689    2.0948   16.2392 H           1 YKI       0.0310
@<TRIPOS>BOND
     1     1     2  ar
     2     5     1  ar
     3     3     2  ar
     4    11     3  ar
     5     7     4   1
     6     4    11   1
     7     9     5  ar
     8     7     6   2
     9     6     9   1
    10    13     7   1
    11     8    17  am
    12    22     8   1
    13     9    11  ar
    14    21    10  ar
    15    10    32  ar
    16    32    12   1
    17    12    33   1
    18    16    13  ar
    19    13    24  ar
    20    14    15  ar
    21    23    14  ar
    22    15    16  ar
    23    17    18   1
    24    17    19   2
    25    18    20  ar
    26    18    31  ar
    27    20    21  ar
    28    22    23   1
    29    22    25   1
    30    23    24  ar
    31    24    26   1
    32    25    26  ar
    33    25    30  ar
    34    26    27  ar
    35    27    28  ar
    36    28    29  ar
    37    29    30  ar
    38    31    32  ar
    39    31    34   1
    40    33    34   2
    41     1    35   1
    42     3    36   1
    43     4    37   1
    44     5    38   1
    45     8    39   1
    46    12    40   1
    47    14    41   1
    48    15    42   1
    49    16    43   1
    50    20    44   1
    51    21    45   1
    52    22    46   1
    53    27    47   1
    54    28    48   1
    55    29    49   1
    56    30    50   1
    57    33    51   1
    58    34    52   1
@<TRIPOS>SUBSTRUCTURE
     1  YKI      1

