@<TRIPOS>MOLECULE
2yki_ligand_057
    52    58
SMALL
GAST_HUCK
****
This file was generated by PARSER (from files_GN.cpp)

@<TRIPOS>ATOM
      1 C1          0.9146   12.9190   20.8512 C.ar        1 YKI      -0.0069
      2 N1         -0.3752   12.6571   20.4909 N.ar        1 YKI      -0.3145
      3 C2         -1.2648   12.0343   21.3123 C.ar        1 YKI       0.0318
      4 N2         -1.4153   10.9793   23.5860 N.pl3       1 YKI      -0.2421
      5 C3          1.3845   12.5478   22.1258 C.ar        1 YKI      -0.0358
      6 N3          0.6708   11.3870   24.2060 N.2         1 YKI      -0.2951
      7 C4         -0.5006   10.8251   24.5616 C.2         1 YKI       0.1441
      8 N4          0.5114    6.4582   28.3261 N.am        1 YKI      -0.2584
      9 C5          0.4889   11.8848   22.9764 C.ar        1 YKI       0.0509
     10 N5          4.2743    5.3840   31.4437 N.ar        1 YKI      -0.2805
     11 C6         -0.8219   11.6283   22.5807 C.ar        1 YKI       0.1092
     12 N6          2.7749    6.6665   32.8746 N.pl3       1 YKI      -0.2631
     13 C7         -0.7206   10.2145   25.7998 C.ar        1 YKI       0.0361
     14 C8         -1.1423    9.1065   28.3729 C.ar        1 YKI      -0.0512
     15 C9         -1.3416   10.4789   28.1526 C.ar        1 YKI      -0.0623
     16 C10        -1.1305   11.0309   26.8784 C.ar        1 YKI      -0.0499
     17 C11         1.8209    6.6948   28.3001 C.2         1 YKI       0.2116
     18 C12         2.6242    6.2579   29.3389 C.ar        1 YKI       0.0544
     19 O13         2.3625    7.2289   27.3408 O.2         1 YKI      -0.3825
     20 C14         3.7615    5.4449   29.0930 C.ar        1 YKI      -0.0315
     21 C15         4.5631    5.0076   30.1701 C.ar        1 YKI       0.0006
     22 C16        -0.4844    6.8384   27.3583 C.3         1 YKI       0.1112
     23 C17        -0.7213    8.2930   27.3061 C.ar        1 YKI       0.0062
     24 C18        -0.5163    8.8288   26.0244 C.ar        1 YKI       0.0013
     25 C19        -0.1453    6.5852   25.9452 C.ar        1 YKI       0.0020
     26 C20        -0.1378    7.7677   25.1888 C.ar        1 YKI      -0.0129
     27 C21         0.2358    7.7299   23.8290 C.ar        1 YKI      -0.0610
     28 C22         0.5922    6.4981   23.2432 C.ar        1 YKI      -0.0680
     29 C23         0.5743    5.3138   24.0083 C.ar        1 YKI      -0.0680
     30 C24         0.1985    5.3505   25.3644 C.ar        1 YKI      -0.0553
     31 C25         2.3645    6.6200   30.6807 C.ar        1 YKI       0.0172
     32 C26         3.2072    6.1765   31.7037 C.ar        1 YKI       0.1409
     33 C27         1.6812    7.4160   32.6550 C.2         1 YKI       0.0293
     34 C28         1.3968    7.4103   31.2928 C.2         1 YKI      -0.0523
     35 H1          1.5460   13.3702   20.1895 H           1 YKI       0.0705
     36 H2         -2.2217   11.8562   21.0058 H           1 YKI       0.0763
     37 H3         -2.3353   10.6714   23.6024 H           1 YKI       0.2328
     38 H4          2.3495   12.7196   22.4101 H           1 YKI       0.0643
     39 H5          0.1826    5.9498   29.0864 H           1 YKI       0.1910
     40 H6          3.1936    6.5166   33.7376 H           1 YKI       0.2313
     41 H7         -1.3001    8.7074   29.2965 H           1 YKI       0.0605
     42 H8         -1.6383   11.0826   28.9161 H           1 YKI       0.0605
     43 H9         -1.2734   12.0357   26.7487 H           1 YKI       0.0619
     44 H10         4.0010    5.1489   28.1426 H           1 YKI       0.0656
     45 H11         5.3725    4.4100   29.9985 H           1 YKI       0.0758
     46 H12        -1.4216    6.3315   27.6008 H           1 YKI       0.0919
     47 H13         0.2610    8.5787   23.2656 H           1 YKI       0.0603
     48 H14         0.8658    6.4638   22.2583 H           1 YKI       0.0563
     49 H15         0.8358    4.4249   23.5773 H           1 YKI       0.0597
     50 H16         0.2016    4.4969   25.9257 H           1 YKI       0.0566
     51 H17         1.1632    7.9263   33.3713 H           1 YKI       0.0983
     52 H18         0.6346    7.9080   30.8329 H           1 YKI       0.0310
@<TRIPOS>BOND
     1     1     2  ar
     2     5     1  ar
     3     3     2  ar
     4    11     3  ar
     5     7     4   1
     6     4    11   1
     7     9     5  ar
     8     7     6   2
     9     6     9   1
    10    13     7   1
    11     8    17  am
    12    22     8   1
    13     9    11  ar
    14    21    10  ar
    15    10    32  ar
    16    32    12   1
    17    12    33   1
    18    16    13  ar
    19    13    24  ar
    20    14    15  ar
    21    23    14  ar
    22    15    16  ar
    23    17    18   1
    24    17    19   2
    25    18    20  ar
    26    18    31  ar
    27    20    21  ar
    28    22    23   1
    29    22    25   1
    30    23    24  ar
    31    24    26   1
    32    25    26  ar
    33    25    30  ar
    34    26    27  ar
    35    27    28  ar
    36    28    29  ar
    37    29    30  ar
    38    31    32  ar
    39    31    34   1
    40    33    34   2
    41     1    35   1
    42     3    36   1
    43     4    37   1
    44     5    38   1
    45     8    39   1
    46    12    40   1
    47    14    41   1
    48    15    42   1
    49    16    43   1
    50    20    44   1
    51    21    45   1
    52    22    46   1
    53    27    47   1
    54    28    48   1
    55    29    49   1
    56    30    50   1
    57    33    51   1
    58    34    52   1
@<TRIPOS>SUBSTRUCTURE
     1  YKI      1

