@<TRIPOS>MOLECULE
2ymd_ligand_011
    26    27
SMALL
GAST_HUCK
****
This file was generated by PARSER (from files_GN.cpp)

@<TRIPOS>ATOM
      1 OH          5.8361    8.4580    4.7903 O.3         1 SRO      -0.3421
      2 CZ3         6.5422    8.2562    5.9248 C.ar        1 SRO       0.0693
      3 CH2         5.9981    8.5701    7.1932 C.ar        1 SRO      -0.0459
      4 CZ2         6.7537    8.3606    8.3615 C.ar        1 SRO      -0.0495
      5 CE2         8.0624    7.8634    8.2417 C.ar        1 SRO       0.0512
      6 NE1         8.9763    7.5926    9.1886 N.pl3       1 SRO      -0.2936
      7 CD1        10.0938    7.1413    8.6053 C.2         1 SRO       0.0142
      8 CG          9.8925    7.0428    7.2216 C.2         1 SRO      -0.0452
      9 CD2         8.6076    7.5441    6.9963 C.ar        1 SRO      -0.0312
     10 CE3         7.8540    7.7346    5.8238 C.ar        1 SRO      -0.0489
     11 CB         10.8749    6.5103    6.2522 C.3         1 SRO       0.0032
     12 CA         11.2330    5.0087    6.4443 C.3         1 SRO      -0.0314
     13 NZ         11.5920    4.6595    7.8289 N.4         1 SRO       0.2194
     14 H1          4.9718    8.0137    4.9331 H           1 SRO       0.2441
     15 H2          5.0495    8.9474    7.2653 H           1 SRO       0.0481
     16 H3          6.3565    8.5646    9.2809 H           1 SRO       0.0526
     17 H4          8.8614    7.7129   10.1439 H           1 SRO       0.2193
     18 H5         10.9542    6.9045    9.1018 H           1 SRO       0.0790
     19 H6          8.2521    7.5238    4.9094 H           1 SRO       0.0435
     20 H7         11.7871    7.1075    6.3187 H           1 SRO       0.0399
     21 H8         10.4892    6.6240    5.2365 H           1 SRO       0.0399
     22 H9         12.0823    4.7659    5.7997 H           1 SRO       0.0828
     23 H10        10.3955    4.3749    6.1352 H           1 SRO       0.0828
     24 H11        11.9374    3.7039    7.8682 H           1 SRO       0.1995
     25 H12        10.7696    4.7421    8.4305 H           1 SRO       0.1995
     26 H13        12.3231    5.2849    8.1622 H           1 SRO       0.1995
@<TRIPOS>BOND
     1     1     2   1
     2     2     3  ar
     3     2    10  ar
     4     3     4  ar
     5     4     5  ar
     6     5     6   1
     7     5     9  ar
     8     6     7   1
     9     7     8   2
    10     8     9   1
    11     8    11   1
    12     9    10  ar
    13    11    12   1
    14    12    13   1
    15     1    14   1
    16     3    15   1
    17     4    16   1
    18     6    17   1
    19     7    18   1
    20    10    19   1
    21    11    20   1
    22    11    21   1
    23    12    22   1
    24    12    23   1
    25    13    24   1
    26    13    25   1
    27    13    26   1
@<TRIPOS>SUBSTRUCTURE
     1  SRO      2

