@<TRIPOS>MOLECULE
2ymd_ligand_016
    26    27
SMALL
GAST_HUCK
****
This file was generated by PARSER (from files_GN.cpp)

@<TRIPOS>ATOM
      1 OH          2.2833    5.7468    3.9537 O.3         1 SRO      -0.3421
      2 CZ3         3.5308    6.0788    4.3539 C.ar        1 SRO       0.0693
      3 CH2         4.5929    5.1676    4.1729 C.ar        1 SRO      -0.0459
      4 CZ2         5.8884    5.4888    4.6266 C.ar        1 SRO      -0.0495
      5 CE2         6.1094    6.7476    5.2044 C.ar        1 SRO       0.0512
      6 NE1         7.2421    7.2962    5.6759 N.pl3       1 SRO      -0.2936
      7 CD1         6.9767    8.5304    6.1288 C.2         1 SRO       0.0142
      8 CG          5.6150    8.8022    5.9677 C.2         1 SRO      -0.0452
      9 CD2         5.0687    7.6645    5.3705 C.ar        1 SRO      -0.0312
     10 CE3         3.7630    7.3344    4.9565 C.ar        1 SRO      -0.0489
     11 CB          4.9197   10.0554    6.3429 C.3         1 SRO       0.0032
     12 CA          4.8880   10.3047    7.8720 C.3         1 SRO      -0.0314
     13 NZ          6.1750   10.7793    8.3848 N.4         1 SRO       0.2194
     14 H1          2.2503    6.0024    3.0080 H           1 SRO       0.2441
     15 H2          4.4290    4.2700    3.7179 H           1 SRO       0.0481
     16 H3          6.6507    4.8169    4.5354 H           1 SRO       0.0526
     17 H4          8.1122    6.8668    5.6828 H           1 SRO       0.2193
     18 H5          7.6717    9.1618    6.5245 H           1 SRO       0.0790
     19 H6          2.9966    7.9945    5.0867 H           1 SRO       0.0435
     20 H7          3.8882   10.0224    5.9846 H           1 SRO       0.0399
     21 H8          5.4049   10.8958    5.8418 H           1 SRO       0.0399
     22 H9          4.6084    9.3904    8.4041 H           1 SRO       0.0828
     23 H10         4.1424   11.0713    8.0937 H           1 SRO       0.0828
     24 H11         6.0936   10.9565    9.3851 H           1 SRO       0.1995
     25 H12         6.4218   11.6424    7.9022 H           1 SRO       0.1995
     26 H13         6.8939   10.0764    8.2212 H           1 SRO       0.1995
@<TRIPOS>BOND
     1     1     2   1
     2     2     3  ar
     3     2    10  ar
     4     3     4  ar
     5     4     5  ar
     6     5     6   1
     7     5     9  ar
     8     6     7   1
     9     7     8   2
    10     8     9   1
    11     8    11   1
    12     9    10  ar
    13    11    12   1
    14    12    13   1
    15     1    14   1
    16     3    15   1
    17     4    16   1
    18     6    17   1
    19     7    18   1
    20    10    19   1
    21    11    20   1
    22    11    21   1
    23    12    22   1
    24    12    23   1
    25    13    24   1
    26    13    25   1
    27    13    26   1
@<TRIPOS>SUBSTRUCTURE
     1  SRO      2

