@<TRIPOS>MOLECULE
2ymd_ligand_009
    26    27
SMALL
GAST_HUCK
****
This file was generated by PARSER (from files_GN.cpp)

@<TRIPOS>ATOM
      1 OH         13.9611   10.3795    4.8537 O.3         1 SRO      -0.3421
      2 CZ3        14.0546   10.1836    6.1840 C.ar        1 SRO       0.0693
      3 CH2        15.2353   10.5586    6.8594 C.ar        1 SRO      -0.0459
      4 CZ2        15.3424   10.3819    8.2534 C.ar        1 SRO      -0.0495
      5 CE2        14.2729    9.7791    8.9344 C.ar        1 SRO       0.0512
      6 NE1        14.1274    9.5251   10.2406 N.pl3       1 SRO      -0.2936
      7 CD1        12.9357    8.9439   10.4393 C.2         1 SRO       0.0142
      8 CG         12.2792    8.7814    9.2156 C.2         1 SRO      -0.0452
      9 CD2        13.1203    9.3592    8.2639 C.ar        1 SRO      -0.0312
     10 CE3        12.9837    9.5877    6.8822 C.ar        1 SRO      -0.0489
     11 CB         10.9517    8.1480    9.0196 C.3         1 SRO       0.0032
     12 CA         11.0005    6.7280    8.3984 C.3         1 SRO      -0.0314
     13 NZ         11.1931    6.7280    6.9442 N.4         1 SRO       0.2194
     14 H1         14.4173    9.6014    4.4778 H           1 SRO       0.2441
     15 H2         16.0099   10.9750    6.3387 H           1 SRO       0.0481
     16 H3         16.1785   10.6855    8.7570 H           1 SRO       0.0526
     17 H4         14.7750    9.7376   10.9298 H           1 SRO       0.2193
     18 H5         12.5779    8.6704   11.3519 H           1 SRO       0.0790
     19 H6         12.1240    9.3322    6.3934 H           1 SRO       0.0435
     20 H7         10.3258    8.7966    8.4046 H           1 SRO       0.0399
     21 H8         10.4655    8.0546    9.9929 H           1 SRO       0.0399
     22 H9         10.0482    6.2258    8.5899 H           1 SRO       0.0828
     23 H10        11.7956    6.1376    8.8569 H           1 SRO       0.0828
     24 H11        11.1585    5.7671    6.5987 H           1 SRO       0.1995
     25 H12        12.1026    7.1278    6.7088 H           1 SRO       0.1995
     26 H13        10.4502    7.2740    6.5009 H           1 SRO       0.1995
@<TRIPOS>BOND
     1     1     2   1
     2     2     3  ar
     3     2    10  ar
     4     3     4  ar
     5     4     5  ar
     6     5     6   1
     7     5     9  ar
     8     6     7   1
     9     7     8   2
    10     8     9   1
    11     8    11   1
    12     9    10  ar
    13    11    12   1
    14    12    13   1
    15     1    14   1
    16     3    15   1
    17     4    16   1
    18     6    17   1
    19     7    18   1
    20    10    19   1
    21    11    20   1
    22    11    21   1
    23    12    22   1
    24    12    23   1
    25    13    24   1
    26    13    25   1
    27    13    26   1
@<TRIPOS>SUBSTRUCTURE
     1  SRO      2

