@<TRIPOS>MOLECULE
2ymd_ligand_003
    26    27
SMALL
GAST_HUCK
****
This file was generated by PARSER (from files_GN.cpp)

@<TRIPOS>ATOM
      1 OH          9.6296    5.5130    8.3903 O.3         1 SRO      -0.3421
      2 CZ3        10.6272    6.2070    7.7902 C.ar        1 SRO       0.0693
      3 CH2        11.0279    5.8810    6.4745 C.ar        1 SRO      -0.0459
      4 CZ2        12.0786    6.5878    5.8548 C.ar        1 SRO      -0.0495
      5 CE2        12.7243    7.6026    6.5791 C.ar        1 SRO       0.0512
      6 NE1        13.7564    8.3829    6.2291 N.pl3       1 SRO      -0.2936
      7 CD1        14.0514    9.2043    7.2466 C.2         1 SRO       0.0142
      8 CG         13.1620    8.9803    8.3004 C.2         1 SRO      -0.0452
      9 CD2        12.3309    7.9401    7.8788 C.ar        1 SRO      -0.0312
     10 CE3        11.2696    7.2482    8.4966 C.ar        1 SRO      -0.0489
     11 CB         13.1355    9.7163    9.5877 C.3         1 SRO       0.0032
     12 CA         13.3505   11.2503    9.4545 C.3         1 SRO      -0.0314
     13 NZ         14.7315   11.6420    9.7594 N.4         1 SRO       0.2194
     14 H1          9.9378    4.5815    8.4205 H           1 SRO       0.2441
     15 H2         10.5577    5.1265    5.9670 H           1 SRO       0.0481
     16 H3         12.3797    6.3539    4.9069 H           1 SRO       0.0526
     17 H4         14.2111    8.3639    5.3734 H           1 SRO       0.2193
     18 H5         14.7979    9.9016    7.2334 H           1 SRO       0.0790
     19 H6         10.9753    7.4752    9.4483 H           1 SRO       0.0435
     20 H7         13.9035    9.2924   10.2369 H           1 SRO       0.0399
     21 H8         12.1796    9.5399   10.0818 H           1 SRO       0.0399
     22 H9         12.6967   11.7847   10.1450 H           1 SRO       0.0828
     23 H10        13.1077   11.5871    8.4448 H           1 SRO       0.0828
     24 H11        14.8268   12.6521    9.6422 H           1 SRO       0.1995
     25 H12        15.3797   11.1641    9.1303 H           1 SRO       0.1995
     26 H13        14.9451   11.3918   10.7279 H           1 SRO       0.1995
@<TRIPOS>BOND
     1     1     2   1
     2     2     3  ar
     3     2    10  ar
     4     3     4  ar
     5     4     5  ar
     6     5     6   1
     7     5     9  ar
     8     6     7   1
     9     7     8   2
    10     8     9   1
    11     8    11   1
    12     9    10  ar
    13    11    12   1
    14    12    13   1
    15     1    14   1
    16     3    15   1
    17     4    16   1
    18     6    17   1
    19     7    18   1
    20    10    19   1
    21    11    20   1
    22    11    21   1
    23    12    22   1
    24    12    23   1
    25    13    24   1
    26    13    25   1
    27    13    26   1
@<TRIPOS>SUBSTRUCTURE
     1  SRO      2

