@<TRIPOS>MOLECULE
2ymd_ligand_021
    26    27
SMALL
GAST_HUCK
****
This file was generated by PARSER (from files_GN.cpp)

@<TRIPOS>ATOM
      1 OH          5.0513   10.0087   10.4384 O.3         1 SRO      -0.3421
      2 CZ3         4.7621   10.2488    9.1392 C.ar        1 SRO       0.0693
      3 CH2         4.0820   11.4284    8.7538 C.ar        1 SRO      -0.0459
      4 CZ2         3.7595   11.6660    7.4035 C.ar        1 SRO      -0.0495
      5 CE2         4.1070   10.6932    6.4560 C.ar        1 SRO       0.0512
      6 NE1         3.8831   10.6596    5.1338 N.pl3       1 SRO      -0.2936
      7 CD1         4.3611    9.5045    4.6479 C.2         1 SRO       0.0142
      8 CG          4.9262    8.7512    5.6758 C.2         1 SRO      -0.0452
      9 CD2         4.7670    9.5182    6.8280 C.ar        1 SRO      -0.0312
     10 CE3         5.1223    9.2900    8.1703 C.ar        1 SRO      -0.0489
     11 CB          5.5497    7.4184    5.5418 C.3         1 SRO       0.0032
     12 CA          4.5615    6.2501    5.7825 C.3         1 SRO      -0.0314
     13 NZ          3.4901    6.1486    4.7827 N.4         1 SRO       0.2194
     14 H1          4.2171   10.2066   10.9128 H           1 SRO       0.2441
     15 H2          3.8135   12.1128    9.4574 H           1 SRO       0.0481
     16 H3          3.2727   12.5197    7.1242 H           1 SRO       0.0526
     17 H4          3.4399   11.3483    4.6139 H           1 SRO       0.2193
     18 H5          4.3099    9.2149    3.6774 H           1 SRO       0.0790
     19 H6          5.6009    8.4301    8.4443 H           1 SRO       0.0435
     20 H7          6.3623    7.3470    6.2671 H           1 SRO       0.0399
     21 H8          6.0012    7.3197    4.5523 H           1 SRO       0.0399
     22 H9          4.1084    6.3518    6.7711 H           1 SRO       0.0828
     23 H10         5.1127    5.3096    5.7561 H           1 SRO       0.0828
     24 H11         2.8364    5.4265    5.0842 H           1 SRO       0.1995
     25 H12         3.8601    5.8610    3.8731 H           1 SRO       0.1995
     26 H13         2.9898    7.0369    4.7031 H           1 SRO       0.1995
@<TRIPOS>BOND
     1     1     2   1
     2     2     3  ar
     3     2    10  ar
     4     3     4  ar
     5     4     5  ar
     6     5     6   1
     7     5     9  ar
     8     6     7   1
     9     7     8   2
    10     8     9   1
    11     8    11   1
    12     9    10  ar
    13    11    12   1
    14    12    13   1
    15     1    14   1
    16     3    15   1
    17     4    16   1
    18     6    17   1
    19     7    18   1
    20    10    19   1
    21    11    20   1
    22    11    21   1
    23    12    22   1
    24    12    23   1
    25    13    24   1
    26    13    25   1
    27    13    26   1
@<TRIPOS>SUBSTRUCTURE
     1  SRO      2

