@<TRIPOS>MOLECULE
2ymd_ligand_020
    26    27
SMALL
GAST_HUCK
****
This file was generated by PARSER (from files_GN.cpp)

@<TRIPOS>ATOM
      1 OH          8.8463    8.5067    6.8244 O.3         1 SRO      -0.3421
      2 CZ3        10.0652    8.2707    7.3643 C.ar        1 SRO       0.0693
      3 CH2        10.3425    7.0155    7.9533 C.ar        1 SRO      -0.0459
      4 CZ2        11.6066    6.7596    8.5199 C.ar        1 SRO      -0.0495
      5 CE2        12.5669    7.7830    8.5119 C.ar        1 SRO       0.0512
      6 NE1        13.8116    7.7970    9.0076 N.pl3       1 SRO      -0.2936
      7 CD1        14.3634    8.9976    8.7764 C.2         1 SRO       0.0142
      8 CG         13.4533    9.7985    8.0924 C.2         1 SRO      -0.0452
      9 CD2        12.3058    9.0233    7.9261 C.ar        1 SRO      -0.0312
     10 CE3        11.0561    9.2768    7.3316 C.ar        1 SRO      -0.0489
     11 CB         13.7232   11.1858    7.6718 C.3         1 SRO       0.0032
     12 CA         13.5586   12.2048    8.8260 C.3         1 SRO      -0.0314
     13 NZ         14.4632   11.9659    9.9595 N.4         1 SRO       0.2194
     14 H1          8.2597    8.6711    7.5930 H           1 SRO       0.2441
     15 H2          9.6283    6.2847    7.9636 H           1 SRO       0.0481
     16 H3         11.8242    5.8506    8.9273 H           1 SRO       0.0526
     17 H4         14.2453    7.0605    9.4601 H           1 SRO       0.2193
     18 H5         15.2997    9.2884    9.0595 H           1 SRO       0.0790
     19 H6         10.8681   10.1792    6.8929 H           1 SRO       0.0435
     20 H7         13.0384   11.4486    6.8650 H           1 SRO       0.0399
     21 H8         14.7365   11.2468    7.2661 H           1 SRO       0.0399
     22 H9         12.5293   12.1889    9.1919 H           1 SRO       0.0828
     23 H10        13.7671   13.2047    8.4408 H           1 SRO       0.0828
     24 H11        14.3408   12.7240   10.6327 H           1 SRO       0.1995
     25 H12        15.4323   11.9584    9.6334 H           1 SRO       0.1995
     26 H13        14.2474   11.0720   10.4062 H           1 SRO       0.1995
@<TRIPOS>BOND
     1     1     2   1
     2     2     3  ar
     3     2    10  ar
     4     3     4  ar
     5     4     5  ar
     6     5     6   1
     7     5     9  ar
     8     6     7   1
     9     7     8   2
    10     8     9   1
    11     8    11   1
    12     9    10  ar
    13    11    12   1
    14    12    13   1
    15     1    14   1
    16     3    15   1
    17     4    16   1
    18     6    17   1
    19     7    18   1
    20    10    19   1
    21    11    20   1
    22    11    21   1
    23    12    22   1
    24    12    23   1
    25    13    24   1
    26    13    25   1
    27    13    26   1
@<TRIPOS>SUBSTRUCTURE
     1  SRO      2

