@<TRIPOS>MOLECULE
2ymd_ligand_012
    26    27
SMALL
GAST_HUCK
****
This file was generated by PARSER (from files_GN.cpp)

@<TRIPOS>ATOM
      1 OH         14.1789    8.7491    5.9046 O.3         1 SRO      -0.3421
      2 CZ3        13.2137    8.5001    6.8199 C.ar        1 SRO       0.0693
      3 CH2        13.5139    8.6512    8.1883 C.ar        1 SRO      -0.0459
      4 CZ2        12.5321    8.3907    9.1698 C.ar        1 SRO      -0.0495
      5 CE2        11.2579    7.9861    8.7492 C.ar        1 SRO       0.0512
      6 NE1        10.1796    7.6702    9.4793 N.pl3       1 SRO      -0.2936
      7 CD1         9.1818    7.3262    8.6588 C.2         1 SRO       0.0142
      8 CG          9.6030    7.4455    7.3293 C.2         1 SRO      -0.0452
      9 CD2        10.9402    7.8494    7.3909 C.ar        1 SRO      -0.0312
     10 CE3        11.9199    8.1002    6.4081 C.ar        1 SRO      -0.0489
     11 CB          8.7624    7.1485    6.1405 C.3         1 SRO       0.0032
     12 CA          7.4325    7.9476    6.1250 C.3         1 SRO      -0.0314
     13 NZ          6.4941    7.4170    5.1290 N.4         1 SRO       0.2194
     14 H1         14.4307    7.8620    5.5555 H           1 SRO       0.2441
     15 H2         14.4511    8.9418    8.4805 H           1 SRO       0.0481
     16 H3         12.7458    8.4944   10.1643 H           1 SRO       0.0526
     17 H4         10.1328    7.6844   10.4449 H           1 SRO       0.2193
     18 H5          8.2531    7.0332    8.9683 H           1 SRO       0.0790
     19 H6         11.7038    7.9908    5.4179 H           1 SRO       0.0435
     20 H7          8.5459    6.0806    6.1432 H           1 SRO       0.0399
     21 H8          9.3162    7.3705    5.2288 H           1 SRO       0.0399
     22 H9          7.6206    8.9955    5.8972 H           1 SRO       0.0828
     23 H10         6.9389    7.8945    7.0930 H           1 SRO       0.0828
     24 H11         5.6314    7.9629    5.1404 H           1 SRO       0.1995
     25 H12         6.2740    6.4425    5.3499 H           1 SRO       0.1995
     26 H13         6.9105    7.4567    4.1990 H           1 SRO       0.1995
@<TRIPOS>BOND
     1     1     2   1
     2     2     3  ar
     3     2    10  ar
     4     3     4  ar
     5     4     5  ar
     6     5     6   1
     7     5     9  ar
     8     6     7   1
     9     7     8   2
    10     8     9   1
    11     8    11   1
    12     9    10  ar
    13    11    12   1
    14    12    13   1
    15     1    14   1
    16     3    15   1
    17     4    16   1
    18     6    17   1
    19     7    18   1
    20    10    19   1
    21    11    20   1
    22    11    21   1
    23    12    22   1
    24    12    23   1
    25    13    24   1
    26    13    25   1
    27    13    26   1
@<TRIPOS>SUBSTRUCTURE
     1  SRO      2

