@<TRIPOS>MOLECULE
2ymd_ligand_008
    26    27
SMALL
GAST_HUCK
****
This file was generated by PARSER (from files_GN.cpp)

@<TRIPOS>ATOM
      1 OH         13.3158   10.0880   11.2847 O.3         1 SRO      -0.3421
      2 CZ3        13.6561   10.5119   10.0495 C.ar        1 SRO       0.0693
      3 CH2        13.9457   11.8784    9.8430 C.ar        1 SRO      -0.0459
      4 CZ2        14.2716   12.3539    8.5561 C.ar        1 SRO      -0.0495
      5 CE2        14.3185   11.4336    7.4944 C.ar        1 SRO       0.0512
      6 NE1        14.5874   11.6275    6.1935 N.pl3       1 SRO      -0.2936
      7 CD1        14.4917   10.4556    5.5451 C.2         1 SRO       0.0142
      8 CG         14.1616    9.4520    6.4568 C.2         1 SRO      -0.0452
      9 CD2        14.0443   10.0797    7.6968 C.ar        1 SRO      -0.0312
     10 CE3        13.7064    9.5995    8.9765 C.ar        1 SRO      -0.0489
     11 CB         13.9522    8.0221    6.1526 C.3         1 SRO       0.0032
     12 CA         12.5329    7.7393    5.6038 C.3         1 SRO      -0.0314
     13 NZ         12.2190    6.3051    5.6613 N.4         1 SRO       0.2194
     14 H1         14.1732    9.8861   11.7098 H           1 SRO       0.2441
     15 H2         13.9110   12.5264   10.6304 H           1 SRO       0.0481
     16 H3         14.4680   13.3441    8.3928 H           1 SRO       0.0526
     17 H4         14.7977   12.4824    5.7829 H           1 SRO       0.2193
     18 H5         14.6398   10.3344    4.5431 H           1 SRO       0.0790
     19 H6         13.4924    8.6117    9.1267 H           1 SRO       0.0435
     20 H7         14.0925    7.4475    7.0673 H           1 SRO       0.0399
     21 H8         14.7131    7.6889    5.4428 H           1 SRO       0.0399
     22 H9         12.4544    8.0738    4.5677 H           1 SRO       0.0828
     23 H10        11.7854    8.2683    6.2020 H           1 SRO       0.0828
     24 H11        11.2233    6.1640    5.4836 H           1 SRO       0.1995
     25 H12        12.4582    5.9521    6.5899 H           1 SRO       0.1995
     26 H13        12.7605    5.7939    4.9608 H           1 SRO       0.1995
@<TRIPOS>BOND
     1     1     2   1
     2     2     3  ar
     3     2    10  ar
     4     3     4  ar
     5     4     5  ar
     6     5     6   1
     7     5     9  ar
     8     6     7   1
     9     7     8   2
    10     8     9   1
    11     8    11   1
    12     9    10  ar
    13    11    12   1
    14    12    13   1
    15     1    14   1
    16     3    15   1
    17     4    16   1
    18     6    17   1
    19     7    18   1
    20    10    19   1
    21    11    20   1
    22    11    21   1
    23    12    22   1
    24    12    23   1
    25    13    24   1
    26    13    25   1
    27    13    26   1
@<TRIPOS>SUBSTRUCTURE
     1  SRO      2

