@<TRIPOS>MOLECULE
2ymd_ligand_023
    26    27
SMALL
GAST_HUCK
****
This file was generated by PARSER (from files_GN.cpp)

@<TRIPOS>ATOM
      1 OH         10.0000   11.1856    8.9551 O.3         1 SRO      -0.3421
      2 CZ3        11.1735   10.6879    8.4985 C.ar        1 SRO       0.0693
      3 CH2        12.3870   11.1078    9.1006 C.ar        1 SRO      -0.0459
      4 CZ2        13.6165   10.6072    8.6354 C.ar        1 SRO      -0.0495
      5 CE2        13.6115    9.6934    7.5735 C.ar        1 SRO       0.0512
      6 NE1        14.6427    9.0979    6.9559 N.pl3       1 SRO      -0.2936
      7 CD1        14.1683    8.2914    5.9970 C.2         1 SRO       0.0142
      8 CG         12.7726    8.3533    5.9756 C.2         1 SRO      -0.0452
      9 CD2        12.4219    9.2586    6.9809 C.ar        1 SRO      -0.0312
     10 CE3        11.1875    9.7493    7.4404 C.ar        1 SRO      -0.0489
     11 CB         11.8930    7.5925    5.0632 C.3         1 SRO       0.0032
     12 CA         11.4902    6.2045    5.6198 C.3         1 SRO      -0.0314
     13 NZ         12.5918    5.2416    5.5585 N.4         1 SRO       0.2194
     14 H1          9.8376   11.9970    8.4232 H           1 SRO       0.2441
     15 H2         12.3640   11.7813    9.8667 H           1 SRO       0.0481
     16 H3         14.4933   10.9090    9.0634 H           1 SRO       0.0526
     17 H4         15.5762    9.2288    7.1715 H           1 SRO       0.2193
     18 H5         14.7501    7.7228    5.3827 H           1 SRO       0.0790
     19 H6         10.3115    9.4408    7.0114 H           1 SRO       0.0435
     20 H7         12.3992    7.4642    4.1031 H           1 SRO       0.0399
     21 H8         10.9867    8.1631    4.8681 H           1 SRO       0.0399
     22 H9         10.6562    5.8064    5.0459 H           1 SRO       0.0828
     23 H10        11.1647    6.2981    6.6584 H           1 SRO       0.0828
     24 H11        12.2862    4.3438    5.9354 H           1 SRO       0.1995
     25 H12        13.3751    5.5858    6.1110 H           1 SRO       0.1995
     26 H13        12.8847    5.1105    4.5880 H           1 SRO       0.1995
@<TRIPOS>BOND
     1     1     2   1
     2     2     3  ar
     3     2    10  ar
     4     3     4  ar
     5     4     5  ar
     6     5     6   1
     7     5     9  ar
     8     6     7   1
     9     7     8   2
    10     8     9   1
    11     8    11   1
    12     9    10  ar
    13    11    12   1
    14    12    13   1
    15     1    14   1
    16     3    15   1
    17     4    16   1
    18     6    17   1
    19     7    18   1
    20    10    19   1
    21    11    20   1
    22    11    21   1
    23    12    22   1
    24    12    23   1
    25    13    24   1
    26    13    25   1
    27    13    26   1
@<TRIPOS>SUBSTRUCTURE
     1  SRO      2

