@<TRIPOS>MOLECULE
2ymd_ligand_005
    26    27
SMALL
GAST_HUCK
****
This file was generated by PARSER (from files_GN.cpp)

@<TRIPOS>ATOM
      1 OH         10.2216    4.5990    6.0896 O.3         1 SRO      -0.3421
      2 CZ3        10.4556    5.6633    6.8916 C.ar        1 SRO       0.0693
      3 CH2         9.8730    5.7038    8.1786 C.ar        1 SRO      -0.0459
      4 CZ2        10.1044    6.8048    9.0276 C.ar        1 SRO      -0.0495
      5 CE2        10.9230    7.8436    8.5657 C.ar        1 SRO       0.0512
      6 NE1        11.2999    8.9595    9.1997 N.pl3       1 SRO      -0.2936
      7 CD1        12.0510    9.6982    8.3665 C.2         1 SRO       0.0142
      8 CG         12.2403    8.9993    7.1696 C.2         1 SRO      -0.0452
      9 CD2        11.4961    7.8231    7.2920 C.ar        1 SRO      -0.0312
     10 CE3        11.2721    6.7245    6.4377 C.ar        1 SRO      -0.0489
     11 CB         13.0850    9.4568    6.0410 C.3         1 SRO       0.0032
     12 CA         14.6114    9.3981    6.3222 C.3         1 SRO      -0.0314
     13 NZ         15.0078    9.9242    7.6380 N.4         1 SRO       0.2194
     14 H1         11.0272    4.0456    6.1714 H           1 SRO       0.2441
     15 H2          9.2749    4.9392    8.4980 H           1 SRO       0.0481
     16 H3          9.6836    6.8538    9.9569 H           1 SRO       0.0526
     17 H4         11.0743    9.1749   10.1171 H           1 SRO       0.2193
     18 H5         12.4362   10.6165    8.5929 H           1 SRO       0.0790
     19 H6         11.6928    6.6919    5.5062 H           1 SRO       0.0435
     20 H7         12.8047   10.4803    5.7887 H           1 SRO       0.0399
     21 H8         12.8824    8.8444    5.1600 H           1 SRO       0.0399
     22 H9         15.1365    9.9738    5.5555 H           1 SRO       0.0828
     23 H10        14.9508    8.3641    6.2563 H           1 SRO       0.0828
     24 H11        16.0229    9.9046    7.7375 H           1 SRO       0.1995
     25 H12        14.5943    9.3497    8.3784 H           1 SRO       0.1995
     26 H13        14.6834   10.8874    7.7371 H           1 SRO       0.1995
@<TRIPOS>BOND
     1     1     2   1
     2     2     3  ar
     3     2    10  ar
     4     3     4  ar
     5     4     5  ar
     6     5     6   1
     7     5     9  ar
     8     6     7   1
     9     7     8   2
    10     8     9   1
    11     8    11   1
    12     9    10  ar
    13    11    12   1
    14    12    13   1
    15     1    14   1
    16     3    15   1
    17     4    16   1
    18     6    17   1
    19     7    18   1
    20    10    19   1
    21    11    20   1
    22    11    21   1
    23    12    22   1
    24    12    23   1
    25    13    24   1
    26    13    25   1
    27    13    26   1
@<TRIPOS>SUBSTRUCTURE
     1  SRO      2

