@<TRIPOS>MOLECULE
2ymd_ligand_006
    26    27
SMALL
GAST_HUCK
****
This file was generated by PARSER (from files_GN.cpp)

@<TRIPOS>ATOM
      1 OH         13.5812   10.9805    7.7676 O.3         1 SRO      -0.3421
      2 CZ3        13.3196    9.8013    7.1600 C.ar        1 SRO       0.0693
      3 CH2        14.3643    9.0394    6.5876 C.ar        1 SRO      -0.0459
      4 CZ2        14.0900    7.7877    5.9975 C.ar        1 SRO      -0.0495
      5 CE2        12.7742    7.2935    6.0305 C.ar        1 SRO       0.0512
      6 NE1        12.2713    6.1167    5.6183 N.pl3       1 SRO      -0.2936
      7 CD1        10.9619    6.0683    5.9239 C.2         1 SRO       0.0142
      8 CG         10.5834    7.2732    6.5170 C.2         1 SRO      -0.0452
      9 CD2        11.7425    8.0460    6.5925 C.ar        1 SRO      -0.0312
     10 CE3        11.9951    9.3189    7.1348 C.ar        1 SRO      -0.0489
     11 CB          9.2548    7.6029    7.0854 C.3         1 SRO       0.0032
     12 CA          9.0953    7.2360    8.5838 C.3         1 SRO      -0.0314
     13 NZ         10.2501    7.6242    9.4033 N.4         1 SRO       0.2194
     14 H1         14.1378   10.7390    8.5401 H           1 SRO       0.2441
     15 H2         15.3249    9.3878    6.6066 H           1 SRO       0.0481
     16 H3         14.8426    7.2228    5.6083 H           1 SRO       0.0526
     17 H4         12.7788    5.3985    5.2021 H           1 SRO       0.2193
     18 H5         10.3532    5.2639    5.7595 H           1 SRO       0.0790
     19 H6         11.2413    9.8657    7.5504 H           1 SRO       0.0435
     20 H7          8.4790    7.0864    6.5120 H           1 SRO       0.0399
     21 H8          9.0876    8.6755    6.9663 H           1 SRO       0.0399
     22 H9          8.9458    6.1598    8.6937 H           1 SRO       0.0828
     23 H10         8.2111    7.7411    8.9783 H           1 SRO       0.0828
     24 H11        10.0117    7.6038   10.3951 H           1 SRO       0.1995
     25 H12        10.5476    8.5700    9.1635 H           1 SRO       0.1995
     26 H13        11.0208    6.9759    9.2226 H           1 SRO       0.1995
@<TRIPOS>BOND
     1     1     2   1
     2     2     3  ar
     3     2    10  ar
     4     3     4  ar
     5     4     5  ar
     6     5     6   1
     7     5     9  ar
     8     6     7   1
     9     7     8   2
    10     8     9   1
    11     8    11   1
    12     9    10  ar
    13    11    12   1
    14    12    13   1
    15     1    14   1
    16     3    15   1
    17     4    16   1
    18     6    17   1
    19     7    18   1
    20    10    19   1
    21    11    20   1
    22    11    21   1
    23    12    22   1
    24    12    23   1
    25    13    24   1
    26    13    25   1
    27    13    26   1
@<TRIPOS>SUBSTRUCTURE
     1  SRO      2

