@<TRIPOS>MOLECULE
2ymd_ligand_019
    26    27
SMALL
GAST_HUCK
****
This file was generated by PARSER (from files_GN.cpp)

@<TRIPOS>ATOM
      1 OH         14.7010   11.7742    4.2773 O.3         1 SRO      -0.3421
      2 CZ3        14.5154   11.8325    5.6183 C.ar        1 SRO       0.0693
      3 CH2        14.5819   13.0751    6.2952 C.ar        1 SRO      -0.0459
      4 CZ2        14.3694   13.1447    7.6908 C.ar        1 SRO      -0.0495
      5 CE2        14.1028   11.9554    8.3918 C.ar        1 SRO       0.0512
      6 NE1        13.8708   11.7505    9.6958 N.pl3       1 SRO      -0.2936
      7 CD1        13.6157   10.4440    9.8951 C.2         1 SRO       0.0142
      8 CG         13.6916    9.7702    8.6753 C.2         1 SRO      -0.0452
      9 CD2        14.0243   10.7298    7.7248 C.ar        1 SRO      -0.0312
     10 CE3        14.2173   10.6519    6.3314 C.ar        1 SRO      -0.0489
     11 CB         13.4379    8.3291    8.4635 C.3         1 SRO       0.0032
     12 CA         11.9414    7.9782    8.6410 C.3         1 SRO      -0.0314
     13 NZ         11.6896    6.6092    8.1855 N.4         1 SRO       0.2194
     14 H1         15.6665   11.8976    4.1570 H           1 SRO       0.2441
     15 H2         14.7843   13.9318    5.7703 H           1 SRO       0.0481
     16 H3         14.4141   14.0378    8.1821 H           1 SRO       0.0526
     17 H4         13.8790   12.4411   10.3788 H           1 SRO       0.2193
     18 H5         13.3916   10.0214   10.8004 H           1 SRO       0.0790
     19 H6         14.1401    9.7619    5.8377 H           1 SRO       0.0435
     20 H7         14.0522    7.7462    9.1572 H           1 SRO       0.0399
     21 H8         13.7370    8.0541    7.4441 H           1 SRO       0.0399
     22 H9         11.3273    8.6384    8.0232 H           1 SRO       0.0828
     23 H10        11.6339    8.0832    9.6891 H           1 SRO       0.0828
     24 H11        10.6995    6.3848    8.3015 H           1 SRO       0.1995
     25 H12        12.2542    5.9438    8.7159 H           1 SRO       0.1995
     26 H13        11.9348    6.5479    7.1991 H           1 SRO       0.1995
@<TRIPOS>BOND
     1     1     2   1
     2     2     3  ar
     3     2    10  ar
     4     3     4  ar
     5     4     5  ar
     6     5     6   1
     7     5     9  ar
     8     6     7   1
     9     7     8   2
    10     8     9   1
    11     8    11   1
    12     9    10  ar
    13    11    12   1
    14    12    13   1
    15     1    14   1
    16     3    15   1
    17     4    16   1
    18     6    17   1
    19     7    18   1
    20    10    19   1
    21    11    20   1
    22    11    21   1
    23    12    22   1
    24    12    23   1
    25    13    24   1
    26    13    25   1
    27    13    26   1
@<TRIPOS>SUBSTRUCTURE
     1  SRO      2

