@<TRIPOS>MOLECULE
2ymd_ligand_013
    26    27
SMALL
GAST_HUCK
****
This file was generated by PARSER (from files_GN.cpp)

@<TRIPOS>ATOM
      1 OH         14.8366   15.3747    3.6361 O.3         1 SRO      -0.3421
      2 CZ3        14.8955   14.0732    4.0031 C.ar        1 SRO       0.0693
      3 CH2        15.1213   13.0695    3.0370 C.ar        1 SRO      -0.0459
      4 CZ2        15.1424   11.7099    3.4094 C.ar        1 SRO      -0.0495
      5 CE2        14.9408   11.3795    4.7616 C.ar        1 SRO       0.0512
      6 NE1        14.8590   10.1802    5.3524 N.pl3       1 SRO      -0.2936
      7 CD1        14.5939   10.3426    6.6582 C.2         1 SRO       0.0142
      8 CG         14.5327   11.7044    6.9547 C.2         1 SRO      -0.0452
      9 CD2        14.7294   12.3609    5.7284 C.ar        1 SRO      -0.0312
     10 CE3        14.6873   13.7217    5.3557 C.ar        1 SRO      -0.0489
     11 CB         14.1551   12.2799    8.2694 C.3         1 SRO       0.0032
     12 CA         14.7739   11.5646    9.5033 C.3         1 SRO      -0.0314
     13 NZ         13.9982   11.8888   10.7137 N.4         1 SRO       0.2194
     14 H1         15.7677   15.6703    3.6476 H           1 SRO       0.2441
     15 H2         15.2566   13.3272    2.0560 H           1 SRO       0.0481
     16 H3         15.2949   10.9807    2.7092 H           1 SRO       0.0526
     17 H4         14.9414    9.3250    4.9056 H           1 SRO       0.2193
     18 H5         14.4418    9.5793    7.3194 H           1 SRO       0.0790
     19 H6         14.5008   14.4475    6.0552 H           1 SRO       0.0435
     20 H7         13.0607   12.2130    8.3384 H           1 SRO       0.0399
     21 H8         14.4297   13.3373    8.3104 H           1 SRO       0.0399
     22 H9         15.8100   11.8832    9.6494 H           1 SRO       0.0828
     23 H10        14.7488   10.4747    9.3673 H           1 SRO       0.0828
     24 H11        14.3474   11.3457   11.4999 H           1 SRO       0.1995
     25 H12        13.0135   11.6631   10.5539 H           1 SRO       0.1995
     26 H13        14.0913   12.8789   10.9210 H           1 SRO       0.1995
@<TRIPOS>BOND
     1     1     2   1
     2     2     3  ar
     3     2    10  ar
     4     3     4  ar
     5     4     5  ar
     6     5     6   1
     7     5     9  ar
     8     6     7   1
     9     7     8   2
    10     8     9   1
    11     8    11   1
    12     9    10  ar
    13    11    12   1
    14    12    13   1
    15     1    14   1
    16     3    15   1
    17     4    16   1
    18     6    17   1
    19     7    18   1
    20    10    19   1
    21    11    20   1
    22    11    21   1
    23    12    22   1
    24    12    23   1
    25    13    24   1
    26    13    25   1
    27    13    26   1
@<TRIPOS>SUBSTRUCTURE
     1  SRO      2

