@<TRIPOS>MOLECULE
2ymd_ligand_002
    26    27
SMALL
GAST_HUCK
****
This file was generated by PARSER (from files_GN.cpp)

@<TRIPOS>ATOM
      1 OH         12.0132    6.7721    4.3130 O.3         1 SRO      -0.3421
      2 CZ3        11.7421    7.1098    5.5991 C.ar        1 SRO       0.0693
      3 CH2        10.6868    6.4574    6.2700 C.ar        1 SRO      -0.0459
      4 CZ2        10.3810    6.7759    7.6092 C.ar        1 SRO      -0.0495
      5 CE2        11.1531    7.7535    8.2588 C.ar        1 SRO       0.0512
      6 NE1        11.0970    8.1981    9.5222 N.pl3       1 SRO      -0.2936
      7 CD1        12.0722    9.1046    9.7134 C.2         1 SRO       0.0142
      8 CG         12.7877    9.2788    8.5252 C.2         1 SRO      -0.0452
      9 CD2        12.2048    8.4050    7.6046 C.ar        1 SRO      -0.0312
     10 CE3        12.5093    8.0935    6.2643 C.ar        1 SRO      -0.0489
     11 CB         13.9559   10.1743    8.3661 C.3         1 SRO       0.0032
     12 CA         13.7720   11.5861    8.9922 C.3         1 SRO      -0.0314
     13 NZ         14.7785   11.8827   10.0249 N.4         1 SRO       0.2194
     14 H1         11.8740    7.5954    3.7969 H           1 SRO       0.2441
     15 H2         10.1396    5.7413    5.7839 H           1 SRO       0.0481
     16 H3          9.6225    6.2988    8.0966 H           1 SRO       0.0526
     17 H4         10.4748    7.9001   10.2041 H           1 SRO       0.2193
     18 H5         12.2612    9.5730   10.6012 H           1 SRO       0.0790
     19 H6         13.2885    8.5497    5.7849 H           1 SRO       0.0435
     20 H7         14.1820   10.2831    7.3037 H           1 SRO       0.0399
     21 H8         14.8202    9.6745    8.8152 H           1 SRO       0.0399
     22 H9         12.7851   11.6899    9.4483 H           1 SRO       0.0828
     23 H10        13.8620   12.3463    8.2125 H           1 SRO       0.0828
     24 H11        14.5370   12.7657   10.4778 H           1 SRO       0.1995
     25 H12        15.7020   11.9577    9.5952 H           1 SRO       0.1995
     26 H13        14.8005   11.1532   10.7306 H           1 SRO       0.1995
@<TRIPOS>BOND
     1     1     2   1
     2     2     3  ar
     3     2    10  ar
     4     3     4  ar
     5     4     5  ar
     6     5     6   1
     7     5     9  ar
     8     6     7   1
     9     7     8   2
    10     8     9   1
    11     8    11   1
    12     9    10  ar
    13    11    12   1
    14    12    13   1
    15     1    14   1
    16     3    15   1
    17     4    16   1
    18     6    17   1
    19     7    18   1
    20    10    19   1
    21    11    20   1
    22    11    21   1
    23    12    22   1
    24    12    23   1
    25    13    24   1
    26    13    25   1
    27    13    26   1
@<TRIPOS>SUBSTRUCTURE
     1  SRO      2

