@<TRIPOS>MOLECULE
2zcq_ligand_009
    41    42
SMALL
GAST_HUCK
****
This file was generated by PARSER (from files_GN.cpp)

@<TRIPOS>ATOM
      1 CAL        25.6946   46.1895   42.5346 C.ar        1 B65      -0.0285
      2 CAH        24.8959   46.0976   43.6893 C.ar        1 B65      -0.0697
      3 CAG        25.0533   45.0092   44.5681 C.ar        1 B65      -0.0723
      4 CAI        26.0134   44.0162   44.2933 C.ar        1 B65      -0.0697
      5 CAM        26.8298   44.1240   43.1511 C.ar        1 B65      -0.0285
      6 CAU        26.6880   45.2181   42.2723 C.ar        1 B65       0.1159
      7 OAS        27.5080   45.2820   41.1732 O.3         1 B65      -0.2597
      8 CAV        28.3218   46.3883   41.1324 C.ar        1 B65       0.1094
      9 CAO        28.1309   47.3228   40.0934 C.ar        1 B65      -0.0276
     10 CAN        29.3648   46.5965   42.0639 C.ar        1 B65      -0.0354
     11 CAJ        30.1584   47.7551   41.9920 C.ar        1 B65      -0.0762
     12 CAK        29.9473   48.6881   40.9606 C.ar        1 B65      -0.0708
     13 CAT        28.9473   48.4718   39.9850 C.ar        1 B65      -0.0509
     14 CAQ        28.8133   49.4010   38.8342 C.3         1 B65      -0.0214
     15 CAP        27.9768   50.6737   39.1243 C.3         1 B65      -0.0405
     16 CAR        26.4193   50.5047   39.1240 C.3         1 B65      -0.0165
     17 CAW        25.6669   51.1981   37.9265 C.3         1 B65       0.1121
     18 PAX        24.1985   51.9000   38.3445 P.3         1 B65       0.0795
     19 OAB        24.3374   52.6787   39.5464 O.co2       1 B65      -0.5610
     20 OAC        23.7786   52.8386   37.3379 O.co2       1 B65      -0.5610
     21 OAA        23.1342   50.9562   38.5411 O.co2       1 B65      -0.5610
     22 SAY        25.4335   50.0734   36.5173 S.o2        1 B65      -0.1731
     23 OAF        24.9355   50.9376   35.1541 O.co2       1 B65      -0.4830
     24 OAE        24.2524   48.9157   36.8593 O.co2       1 B65      -0.4830
     25 OAD        26.8728   49.2767   36.1304 O.co2       1 B65      -0.4830
     26 H1         25.5685   46.9774   41.8944 H           1 B65       0.0552
     27 H2         24.1990   46.8151   43.8840 H           1 B65       0.0590
     28 H3         24.4705   44.9398   45.4003 H           1 B65       0.0528
     29 H4         26.1172   43.2218   44.9220 H           1 B65       0.0590
     30 H5         27.5313   43.4047   42.9645 H           1 B65       0.0552
     31 H6         27.3899   47.1561   39.4068 H           1 B65       0.0488
     32 H7         29.5284   45.9121   42.8045 H           1 B65       0.0496
     33 H8         30.8979   47.9041   42.6788 H           1 B65       0.0573
     34 H9         30.5465   49.5145   40.9176 H           1 B65       0.0470
     35 H10        28.3860   48.8738   37.9843 H           1 B65       0.0424
     36 H11        29.8150   49.7014   38.5143 H           1 B65       0.0424
     37 H12        28.2689   51.4205   38.3852 H           1 B65       0.0288
     38 H13        28.3001   51.0839   40.0876 H           1 B65       0.0288
     39 H14        26.0745   50.9109   40.0792 H           1 B65       0.0298
     40 H15        26.1521   49.4461   39.1602 H           1 B65       0.0298
     41 H16        26.2798   52.0254   37.5655 H           1 B65       0.0695
@<TRIPOS>BOND
     1     1     2  ar
     2     1     6  ar
     3     2     3  ar
     4     3     4  ar
     5     4     5  ar
     6     5     6  ar
     7     6     7   1
     8     7     8   1
     9     8     9  ar
    10     8    10  ar
    11     9    13  ar
    12    10    11  ar
    13    11    12  ar
    14    12    13  ar
    15    13    14   1
    16    14    15   1
    17    15    16   1
    18    16    17   1
    19    17    18   1
    20    17    22   1
    21    18    19  ar
    22    18    20  ar
    23    18    21  ar
    24    22    23  ar
    25    22    24  ar
    26    22    25  ar
    27     1    26   1
    28     2    27   1
    29     3    28   1
    30     4    29   1
    31     5    30   1
    32     9    31   1
    33    10    32   1
    34    11    33   1
    35    12    34   1
    36    14    35   1
    37    14    36   1
    38    15    37   1
    39    15    38   1
    40    16    39   1
    41    16    40   1
    42    17    41   1
@<TRIPOS>SUBSTRUCTURE
     1  B65      1

