@<TRIPOS>MOLECULE
2zcq_ligand_049
    41    42
SMALL
GAST_HUCK
****
This file was generated by PARSER (from files_GN.cpp)

@<TRIPOS>ATOM
      1 CAL        14.4700   56.2120   41.2919 C.ar        1 B65      -0.0285
      2 CAH        14.3004   57.0782   42.3904 C.ar        1 B65      -0.0697
      3 CAG        13.5242   56.6714   43.4901 C.ar        1 B65      -0.0723
      4 CAI        12.9127   55.4024   43.4906 C.ar        1 B65      -0.0697
      5 CAM        13.0830   54.5389   42.3941 C.ar        1 B65      -0.0285
      6 CAU        13.8845   54.9295   41.2992 C.ar        1 B65       0.1159
      7 OAS        14.0514   54.0798   40.2384 O.3         1 B65      -0.2597
      8 CAV        15.1869   53.3275   40.3765 C.ar        1 B65       0.1094
      9 CAO        16.4121   53.7932   39.8511 C.ar        1 B65      -0.0276
     10 CAN        15.1279   52.0544   40.9765 C.ar        1 B65      -0.0354
     11 CAJ        16.2918   51.2744   41.0851 C.ar        1 B65      -0.0762
     12 CAK        17.5133   51.7543   40.5861 C.ar        1 B65      -0.0708
     13 CAT        17.5892   53.0178   39.9535 C.ar        1 B65      -0.0509
     14 CAQ        18.8486   53.4774   39.2972 C.3         1 B65      -0.0214
     15 CAP        19.5820   54.6450   40.0419 C.3         1 B65      -0.0405
     16 CAR        20.6516   55.3671   39.1372 C.3         1 B65      -0.0165
     17 CAW        22.1605   55.3785   39.5792 C.3         1 B65       0.1121
     18 PAX        22.7298   53.9239   40.1827 P.3         1 B65       0.0795
     19 OAB        24.1271   53.9940   40.5405 O.co2       1 B65      -0.5610
     20 OAC        21.9719   53.4794   41.3302 O.co2       1 B65      -0.5610
     21 OAA        22.6092   52.8941   39.1778 O.co2       1 B65      -0.5610
     22 SAY        22.5767   56.8167   40.6261 S.o2        1 B65      -0.1731
     23 OAF        21.1758   57.6684   41.0613 O.co2       1 B65      -0.4830
     24 OAE        23.5703   57.8462   39.7215 O.co2       1 B65      -0.4830
     25 OAD        23.4193   56.4011   42.0354 O.co2       1 B65      -0.4830
     26 H1         15.0305   56.5180   40.4941 H           1 B65       0.0552
     27 H2         14.7413   58.0009   42.3867 H           1 B65       0.0590
     28 H3         13.3981   57.3009   44.2848 H           1 B65       0.0528
     29 H4         12.3449   55.1064   44.2879 H           1 B65       0.0590
     30 H5         12.6300   53.6226   42.3977 H           1 B65       0.0552
     31 H6         16.4341   54.6934   39.3661 H           1 B65       0.0488
     32 H7         14.2412   51.6923   41.3273 H           1 B65       0.0496
     33 H8         16.2462   50.3511   41.5197 H           1 B65       0.0573
     34 H9         18.3431   51.1632   40.6571 H           1 B65       0.0470
     35 H10        18.5904   53.8182   38.2825 H           1 B65       0.0424
     36 H11        19.5572   52.6521   39.1748 H           1 B65       0.0424
     37 H12        20.0801   54.2548   40.9552 H           1 B65       0.0288
     38 H13        18.8365   55.3938   40.3752 H           1 B65       0.0288
     39 H14        20.3261   56.4112   39.0147 H           1 B65       0.0298
     40 H15        20.6346   54.9476   38.1157 H           1 B65       0.0298
     41 H16        22.7322   55.5432   38.6581 H           1 B65       0.0695
@<TRIPOS>BOND
     1     1     2  ar
     2     1     6  ar
     3     2     3  ar
     4     3     4  ar
     5     4     5  ar
     6     5     6  ar
     7     6     7   1
     8     7     8   1
     9     8     9  ar
    10     8    10  ar
    11     9    13  ar
    12    10    11  ar
    13    11    12  ar
    14    12    13  ar
    15    13    14   1
    16    14    15   1
    17    15    16   1
    18    16    17   1
    19    17    18   1
    20    17    22   1
    21    18    19  ar
    22    18    20  ar
    23    18    21  ar
    24    22    23  ar
    25    22    24  ar
    26    22    25  ar
    27     1    26   1
    28     2    27   1
    29     3    28   1
    30     4    29   1
    31     5    30   1
    32     9    31   1
    33    10    32   1
    34    11    33   1
    35    12    34   1
    36    14    35   1
    37    14    36   1
    38    15    37   1
    39    15    38   1
    40    16    39   1
    41    16    40   1
    42    17    41   1
@<TRIPOS>SUBSTRUCTURE
     1  B65      1

