@<TRIPOS>MOLECULE
2zcq_ligand_028
    41    42
SMALL
GAST_HUCK
****
This file was generated by PARSER (from files_GN.cpp)

@<TRIPOS>ATOM
      1 CAL        30.0826   44.7789   39.6043 C.ar        1 B65      -0.0285
      2 CAH        29.2478   43.6949   39.2659 C.ar        1 B65      -0.0697
      3 CAG        28.4208   43.7704   38.1274 C.ar        1 B65      -0.0723
      4 CAI        28.4362   44.9233   37.3238 C.ar        1 B65      -0.0697
      5 CAM        29.2660   46.0064   37.6647 C.ar        1 B65      -0.0285
      6 CAU        30.0873   45.9478   38.8109 C.ar        1 B65       0.1159
      7 OAS        30.9257   46.9931   39.1091 O.3         1 B65      -0.2597
      8 CAV        30.3646   47.8709   39.9919 C.ar        1 B65       0.1094
      9 CAO        29.4418   48.8435   39.5564 C.ar        1 B65      -0.0276
     10 CAN        30.7456   47.8363   41.3455 C.ar        1 B65      -0.0354
     11 CAJ        30.1802   48.7389   42.2638 C.ar        1 B65      -0.0762
     12 CAK        29.2289   49.6798   41.8322 C.ar        1 B65      -0.0708
     13 CAT        28.8397   49.7393   40.4708 C.ar        1 B65      -0.0509
     14 CAQ        27.8069   50.7211   40.0323 C.3         1 B65      -0.0214
     15 CAP        26.3393   50.2396   40.3041 C.3         1 B65      -0.0405
     16 CAR        25.5396   49.7533   39.0565 C.3         1 B65      -0.0165
     17 CAW        25.1692   50.8012   37.9527 C.3         1 B65       0.1121
     18 PAX        24.4922   52.2167   38.5332 P.3         1 B65       0.0795
     19 OAB        25.4321   52.9214   39.3705 O.co2       1 B65      -0.5610
     20 OAC        24.0830   53.1100   37.4848 O.co2       1 B65      -0.5610
     21 OAA        23.3085   51.9689   39.3143 O.co2       1 B65      -0.5610
     22 SAY        24.0459   50.0499   36.7432 S.o2        1 B65      -0.1731
     23 OAF        24.1730   50.8448   35.2586 O.co2       1 B65      -0.4830
     24 OAE        22.4667   50.1968   37.3307 O.co2       1 B65      -0.4830
     25 OAD        24.4328   48.4241   36.4966 O.co2       1 B65      -0.4830
     26 H1         30.6879   44.7141   40.4235 H           1 B65       0.0552
     27 H2         29.2455   42.8532   39.8432 H           1 B65       0.0590
     28 H3         27.8235   42.9814   37.8799 H           1 B65       0.0528
     29 H4         27.8484   44.9752   36.4881 H           1 B65       0.0590
     30 H5         29.2796   46.8392   37.0668 H           1 B65       0.0552
     31 H6         29.1893   48.8883   38.5653 H           1 B65       0.0488
     32 H7         31.4308   47.1529   41.6691 H           1 B65       0.0496
     33 H8         30.4548   48.7091   43.2481 H           1 B65       0.0573
     34 H9         28.8184   50.3227   42.5141 H           1 B65       0.0470
     35 H10        27.9420   50.9594   38.9777 H           1 B65       0.0424
     36 H11        27.9802   51.6554   40.5695 H           1 B65       0.0424
     37 H12        25.7843   51.0388   40.7972 H           1 B65       0.0288
     38 H13        26.3435   49.4069   41.0179 H           1 B65       0.0288
     39 H14        24.6203   49.2911   39.4248 H           1 B65       0.0298
     40 H15        26.1319   48.9577   38.5912 H           1 B65       0.0298
     41 H16        26.0722   51.0603   37.3967 H           1 B65       0.0695
@<TRIPOS>BOND
     1     1     2  ar
     2     1     6  ar
     3     2     3  ar
     4     3     4  ar
     5     4     5  ar
     6     5     6  ar
     7     6     7   1
     8     7     8   1
     9     8     9  ar
    10     8    10  ar
    11     9    13  ar
    12    10    11  ar
    13    11    12  ar
    14    12    13  ar
    15    13    14   1
    16    14    15   1
    17    15    16   1
    18    16    17   1
    19    17    18   1
    20    17    22   1
    21    18    19  ar
    22    18    20  ar
    23    18    21  ar
    24    22    23  ar
    25    22    24  ar
    26    22    25  ar
    27     1    26   1
    28     2    27   1
    29     3    28   1
    30     4    29   1
    31     5    30   1
    32     9    31   1
    33    10    32   1
    34    11    33   1
    35    12    34   1
    36    14    35   1
    37    14    36   1
    38    15    37   1
    39    15    38   1
    40    16    39   1
    41    16    40   1
    42    17    41   1
@<TRIPOS>SUBSTRUCTURE
     1  B65      1

