@<TRIPOS>MOLECULE
2zcq_ligand_003
    41    42
SMALL
GAST_HUCK
****
This file was generated by PARSER (from files_GN.cpp)

@<TRIPOS>ATOM
      1 CAL        24.6894   48.3871   31.8310 C.ar        1 B65      -0.0285
      2 CAH        25.2888   47.1344   31.5876 C.ar        1 B65      -0.0697
      3 CAG        24.5076   45.9647   31.6049 C.ar        1 B65      -0.0723
      4 CAI        23.1243   46.0486   31.8498 C.ar        1 B65      -0.0697
      5 CAM        22.5237   47.3019   32.0750 C.ar        1 B65      -0.0285
      6 CAU        23.3055   48.4849   32.0968 C.ar        1 B65       0.1159
      7 OAS        22.7551   49.7340   32.2267 O.3         1 B65      -0.2597
      8 CAV        22.0977   49.9529   33.4120 C.ar        1 B65       0.1094
      9 CAO        22.7963   50.3329   34.5797 C.ar        1 B65      -0.0276
     10 CAN        20.6900   49.8832   33.4381 C.ar        1 B65      -0.0354
     11 CAJ        19.9937   50.1185   34.6342 C.ar        1 B65      -0.0762
     12 CAK        20.7003   50.4753   35.7982 C.ar        1 B65      -0.0708
     13 CAT        22.1114   50.6260   35.7857 C.ar        1 B65      -0.0509
     14 CAQ        22.8073   51.0230   37.0502 C.3         1 B65      -0.0214
     15 CAP        24.0852   51.9202   36.9739 C.3         1 B65      -0.0405
     16 CAR        25.5000   51.2502   36.8907 C.3         1 B65      -0.0165
     17 CAW        25.9738   50.2103   37.9698 C.3         1 B65       0.1121
     18 PAX        25.6764   48.6027   37.5777 P.3         1 B65       0.0795
     19 OAB        26.7540   48.1271   36.7422 O.co2       1 B65      -0.5610
     20 OAC        25.6441   47.7001   38.7021 O.co2       1 B65      -0.5610
     21 OAA        24.4917   48.3800   36.7881 O.co2       1 B65      -0.5610
     22 SAY        25.5226   50.6580   39.6728 S.o2        1 B65      -0.1731
     23 OAF        26.0071   52.2551   39.9466 O.co2       1 B65      -0.4830
     24 OAE        26.3437   49.6597   40.7651 O.co2       1 B65      -0.4830
     25 OAD        23.8588   50.5152   39.9440 O.co2       1 B65      -0.4830
     26 H1         25.2592   49.2312   31.7992 H           1 B65       0.0552
     27 H2         26.2893   47.0763   31.3864 H           1 B65       0.0590
     28 H3         24.9413   45.0563   31.4289 H           1 B65       0.0528
     29 H4         22.5540   45.2008   31.8517 H           1 B65       0.0590
     30 H5         21.5154   47.3538   32.2199 H           1 B65       0.0552
     31 H6         23.8094   50.3974   34.5334 H           1 B65       0.0488
     32 H7         20.1706   49.6385   32.5953 H           1 B65       0.0496
     33 H8         18.9760   50.0323   34.6599 H           1 B65       0.0573
     34 H9         20.1690   50.6349   36.6598 H           1 B65       0.0470
     35 H10        23.0240   50.1156   37.6098 H           1 B65       0.0424
     36 H11        22.0945   51.5830   37.6634 H           1 B65       0.0424
     37 H12        24.0966   52.5607   37.8613 H           1 B65       0.0288
     38 H13        23.9785   52.5942   36.1210 H           1 B65       0.0288
     39 H14        26.2069   52.0836   36.9467 H           1 B65       0.0298
     40 H15        25.6283   50.8303   35.8894 H           1 B65       0.0298
     41 H16        27.0643   50.2802   37.9908 H           1 B65       0.0695
@<TRIPOS>BOND
     1     1     2  ar
     2     1     6  ar
     3     2     3  ar
     4     3     4  ar
     5     4     5  ar
     6     5     6  ar
     7     6     7   1
     8     7     8   1
     9     8     9  ar
    10     8    10  ar
    11     9    13  ar
    12    10    11  ar
    13    11    12  ar
    14    12    13  ar
    15    13    14   1
    16    14    15   1
    17    15    16   1
    18    16    17   1
    19    17    18   1
    20    17    22   1
    21    18    19  ar
    22    18    20  ar
    23    18    21  ar
    24    22    23  ar
    25    22    24  ar
    26    22    25  ar
    27     1    26   1
    28     2    27   1
    29     3    28   1
    30     4    29   1
    31     5    30   1
    32     9    31   1
    33    10    32   1
    34    11    33   1
    35    12    34   1
    36    14    35   1
    37    14    36   1
    38    15    37   1
    39    15    38   1
    40    16    39   1
    41    16    40   1
    42    17    41   1
@<TRIPOS>SUBSTRUCTURE
     1  B65      1

