@<TRIPOS>MOLECULE
2zcq_ligand_013
    41    42
SMALL
GAST_HUCK
****
This file was generated by PARSER (from files_GN.cpp)

@<TRIPOS>ATOM
      1 CAL        26.8460   45.7599   34.4739 C.ar        1 B65      -0.0285
      2 CAH        26.5737   46.3931   33.2491 C.ar        1 B65      -0.0697
      3 CAG        27.2647   47.5675   32.8942 C.ar        1 B65      -0.0723
      4 CAI        28.2218   48.1094   33.7694 C.ar        1 B65      -0.0697
      5 CAM        28.4958   47.4718   34.9971 C.ar        1 B65      -0.0285
      6 CAU        27.8002   46.2996   35.3646 C.ar        1 B65       0.1159
      7 OAS        28.1103   45.6078   36.5055 O.3         1 B65      -0.2597
      8 CAV        27.8137   46.2783   37.6597 C.ar        1 B65       0.1094
      9 CAO        26.5170   46.2498   38.2166 C.ar        1 B65      -0.0276
     10 CAN        28.8481   46.9445   38.3488 C.ar        1 B65      -0.0354
     11 CAJ        28.5844   47.5978   39.5633 C.ar        1 B65      -0.0762
     12 CAK        27.2879   47.5729   40.1089 C.ar        1 B65      -0.0708
     13 CAT        26.2333   46.9097   39.4365 C.ar        1 B65      -0.0509
     14 CAQ        24.8397   46.9781   39.9585 C.3         1 B65      -0.0214
     15 CAP        23.9590   47.9728   39.1518 C.3         1 B65      -0.0405
     16 CAR        24.4375   49.4570   39.2299 C.3         1 B65      -0.0165
     17 CAW        24.0804   50.3850   38.0271 C.3         1 B65       0.1121
     18 PAX        24.8464   49.9961   36.5837 P.3         1 B65       0.0795
     19 OAB        24.5830   50.9111   35.5026 O.co2       1 B65      -0.5610
     20 OAC        26.2654   49.7820   36.7044 O.co2       1 B65      -0.5610
     21 OAA        24.2666   48.7781   36.0849 O.co2       1 B65      -0.5610
     22 SAY        24.4656   52.0980   38.4829 S.o2        1 B65      -0.1731
     23 OAF        23.9104   53.1477   37.2830 O.co2       1 B65      -0.4830
     24 OAE        26.1302   52.2993   38.6896 O.co2       1 B65      -0.4830
     25 OAD        23.6960   52.4992   39.9328 O.co2       1 B65      -0.4830
     26 H1         26.3557   44.8971   34.7110 H           1 B65       0.0552
     27 H2         25.8855   45.9928   32.6073 H           1 B65       0.0590
     28 H3         27.0753   48.0188   31.9988 H           1 B65       0.0528
     29 H4         28.7355   48.9577   33.5102 H           1 B65       0.0590
     30 H5         29.2172   47.8587   35.6128 H           1 B65       0.0552
     31 H6         25.7729   45.7592   37.7147 H           1 B65       0.0488
     32 H7         29.7931   46.9624   37.9598 H           1 B65       0.0496
     33 H8         29.3311   48.1014   40.0464 H           1 B65       0.0573
     34 H9         27.1118   48.0759   40.9819 H           1 B65       0.0470
     35 H10        24.8260   47.2788   41.0107 H           1 B65       0.0424
     36 H11        24.3940   45.9807   39.9110 H           1 B65       0.0424
     37 H12        22.9408   47.9216   39.5376 H           1 B65       0.0288
     38 H13        23.9138   47.6206   38.1223 H           1 B65       0.0288
     39 H14        25.5197   49.5057   39.3768 H           1 B65       0.0298
     40 H15        23.9899   49.8669   40.1398 H           1 B65       0.0298
     41 H16        23.0021   50.3423   37.8617 H           1 B65       0.0695
@<TRIPOS>BOND
     1     1     2  ar
     2     1     6  ar
     3     2     3  ar
     4     3     4  ar
     5     4     5  ar
     6     5     6  ar
     7     6     7   1
     8     7     8   1
     9     8     9  ar
    10     8    10  ar
    11     9    13  ar
    12    10    11  ar
    13    11    12  ar
    14    12    13  ar
    15    13    14   1
    16    14    15   1
    17    15    16   1
    18    16    17   1
    19    17    18   1
    20    17    22   1
    21    18    19  ar
    22    18    20  ar
    23    18    21  ar
    24    22    23  ar
    25    22    24  ar
    26    22    25  ar
    27     1    26   1
    28     2    27   1
    29     3    28   1
    30     4    29   1
    31     5    30   1
    32     9    31   1
    33    10    32   1
    34    11    33   1
    35    12    34   1
    36    14    35   1
    37    14    36   1
    38    15    37   1
    39    15    38   1
    40    16    39   1
    41    16    40   1
    42    17    41   1
@<TRIPOS>SUBSTRUCTURE
     1  B65      1

