@<TRIPOS>MOLECULE
2zcq_ligand_056
    41    42
SMALL
GAST_HUCK
****
This file was generated by PARSER (from files_GN.cpp)

@<TRIPOS>ATOM
      1 CAL        14.3792   57.5971   38.4759 C.ar        1 B65      -0.0285
      2 CAH        13.0381   57.2128   38.6608 C.ar        1 B65      -0.0697
      3 CAG        12.1995   57.0195   37.5451 C.ar        1 B65      -0.0723
      4 CAI        12.7012   57.2094   36.2458 C.ar        1 B65      -0.0697
      5 CAM        14.0478   57.5815   36.0584 C.ar        1 B65      -0.0285
      6 CAU        14.8954   57.7687   37.1736 C.ar        1 B65       0.1159
      7 OAS        16.1819   58.2073   37.0153 O.3         1 B65      -0.2597
      8 CAV        17.0742   57.2107   36.7227 C.ar        1 B65       0.1094
      9 CAO        17.5590   56.3357   37.7194 C.ar        1 B65      -0.0276
     10 CAN        17.6039   57.1330   35.4197 C.ar        1 B65      -0.0354
     11 CAJ        18.5967   56.1898   35.1120 C.ar        1 B65      -0.0762
     12 CAK        19.0704   55.3169   36.1075 C.ar        1 B65      -0.0708
     13 CAT        18.5691   55.3911   37.4293 C.ar        1 B65      -0.0509
     14 CAQ        19.0899   54.4696   38.4730 C.3         1 B65      -0.0214
     15 CAP        20.5944   54.6872   38.8260 C.3         1 B65      -0.0405
     16 CAR        20.8536   55.8578   39.8181 C.3         1 B65      -0.0165
     17 CAW        22.3490   56.1351   40.2135 C.3         1 B65       0.1121
     18 PAX        23.1581   54.8342   40.9170 P.3         1 B65       0.0795
     19 OAB        24.1234   55.1286   41.9552 O.co2       1 B65      -0.5610
     20 OAC        22.3143   53.7688   41.4046 O.co2       1 B65      -0.5610
     21 OAA        23.9618   54.2260   39.8783 O.co2       1 B65      -0.5610
     22 SAY        22.4970   57.6979   41.1482 S.o2        1 B65      -0.1731
     23 OAF        23.0428   57.4982   42.7370 O.co2       1 B65      -0.4830
     24 OAE        21.0037   58.4887   41.2376 O.co2       1 B65      -0.4830
     25 OAD        23.5904   58.6991   40.3313 O.co2       1 B65      -0.4830
     26 H1         14.9754   57.7572   39.2890 H           1 B65       0.0552
     27 H2         12.6678   57.0821   39.6068 H           1 B65       0.0590
     28 H3         11.2196   56.7515   37.6809 H           1 B65       0.0528
     29 H4         12.0908   57.0839   35.4376 H           1 B65       0.0590
     30 H5         14.4100   57.7274   35.1128 H           1 B65       0.0552
     31 H6         17.1772   56.4047   38.6634 H           1 B65       0.0488
     32 H7         17.2738   57.7707   34.6944 H           1 B65       0.0496
     33 H8         18.9879   56.1414   34.1732 H           1 B65       0.0573
     34 H9         19.7842   54.6271   35.8631 H           1 B65       0.0470
     35 H10        18.9577   53.4493   38.1045 H           1 B65       0.0424
     36 H11        18.4991   54.5397   39.3924 H           1 B65       0.0424
     37 H12        21.1742   54.8609   37.9186 H           1 B65       0.0288
     38 H13        20.9570   53.7585   39.2690 H           1 B65       0.0288
     39 H14        20.2766   55.6824   40.7297 H           1 B65       0.0298
     40 H15        20.4526   56.7585   39.3506 H           1 B65       0.0298
     41 H16        22.8693   56.3426   39.2763 H           1 B65       0.0695
@<TRIPOS>BOND
     1     1     2  ar
     2     1     6  ar
     3     2     3  ar
     4     3     4  ar
     5     4     5  ar
     6     5     6  ar
     7     6     7   1
     8     7     8   1
     9     8     9  ar
    10     8    10  ar
    11     9    13  ar
    12    10    11  ar
    13    11    12  ar
    14    12    13  ar
    15    13    14   1
    16    14    15   1
    17    15    16   1
    18    16    17   1
    19    17    18   1
    20    17    22   1
    21    18    19  ar
    22    18    20  ar
    23    18    21  ar
    24    22    23  ar
    25    22    24  ar
    26    22    25  ar
    27     1    26   1
    28     2    27   1
    29     3    28   1
    30     4    29   1
    31     5    30   1
    32     9    31   1
    33    10    32   1
    34    11    33   1
    35    12    34   1
    36    14    35   1
    37    14    36   1
    38    15    37   1
    39    15    38   1
    40    16    39   1
    41    16    40   1
    42    17    41   1
@<TRIPOS>SUBSTRUCTURE
     1  B65      1

