@<TRIPOS>MOLECULE
2zcq_ligand_054
    41    42
SMALL
GAST_HUCK
****
This file was generated by PARSER (from files_GN.cpp)

@<TRIPOS>ATOM
      1 CAL        14.7065   51.2712   37.9354 C.ar        1 B65      -0.0285
      2 CAH        14.9266   50.0081   37.3522 C.ar        1 B65      -0.0697
      3 CAG        15.8272   49.1078   37.9509 C.ar        1 B65      -0.0723
      4 CAI        16.4786   49.4507   39.1501 C.ar        1 B65      -0.0697
      5 CAM        16.2532   50.7109   39.7365 C.ar        1 B65      -0.0285
      6 CAU        15.3921   51.6392   39.1119 C.ar        1 B65       0.1159
      7 OAS        15.3013   52.9162   39.6053 O.3         1 B65      -0.2597
      8 CAV        16.0100   53.8982   38.9382 C.ar        1 B65       0.1094
      9 CAO        17.2083   53.6836   38.2051 C.ar        1 B65      -0.0276
     10 CAN        15.5150   55.2174   39.0233 C.ar        1 B65      -0.0354
     11 CAJ        16.1899   56.2837   38.4036 C.ar        1 B65      -0.0762
     12 CAK        17.3806   56.0482   37.6929 C.ar        1 B65      -0.0708
     13 CAT        17.9035   54.7353   37.5798 C.ar        1 B65      -0.0509
     14 CAQ        19.0961   54.4485   36.7361 C.3         1 B65      -0.0214
     15 CAP        20.2147   53.5661   37.3656 C.3         1 B65      -0.0405
     16 CAR        20.8790   54.1100   38.6714 C.3         1 B65      -0.0165
     17 CAW        22.4283   53.9345   38.8642 C.3         1 B65       0.1121
     18 PAX        23.1342   52.5284   38.2881 P.3         1 B65       0.0795
     19 OAB        22.3727   51.3296   38.5511 O.co2       1 B65      -0.5610
     20 OAC        23.2820   52.6019   36.8520 O.co2       1 B65      -0.5610
     21 OAA        24.4927   52.3395   38.7386 O.co2       1 B65      -0.5610
     22 SAY        22.9187   54.2851   40.5877 S.o2        1 B65      -0.1731
     23 OAF        23.9823   55.5985   40.5744 O.co2       1 B65      -0.4830
     24 OAE        23.6938   52.9675   41.3130 O.co2       1 B65      -0.4830
     25 OAD        21.5822   54.6941   41.5379 O.co2       1 B65      -0.4830
     26 H1         14.0801   51.9367   37.4796 H           1 B65       0.0552
     27 H2         14.4509   49.7556   36.4829 H           1 B65       0.0590
     28 H3         16.0006   48.1984   37.5163 H           1 B65       0.0528
     29 H4         17.1312   48.7941   39.5860 H           1 B65       0.0590
     30 H5         16.7544   50.9697   40.5886 H           1 B65       0.0552
     31 H6         17.5731   52.7364   38.1071 H           1 B65       0.0488
     32 H7         14.6488   55.4074   39.5367 H           1 B65       0.0496
     33 H8         15.8125   57.2337   38.4594 H           1 B65       0.0573
     34 H9         17.8471   56.8345   37.2339 H           1 B65       0.0470
     35 H10        19.5589   55.3822   36.3957 H           1 B65       0.0424
     36 H11        18.7383   53.9345   35.8398 H           1 B65       0.0424
     37 H12        20.9669   53.4576   36.5888 H           1 B65       0.0288
     38 H13        19.8249   52.5632   37.5636 H           1 B65       0.0288
     39 H14        20.3506   53.6515   39.5108 H           1 B65       0.0298
     40 H15        20.6833   55.1836   38.7279 H           1 B65       0.0298
     41 H16        22.8925   54.7392   38.2952 H           1 B65       0.0695
@<TRIPOS>BOND
     1     1     2  ar
     2     1     6  ar
     3     2     3  ar
     4     3     4  ar
     5     4     5  ar
     6     5     6  ar
     7     6     7   1
     8     7     8   1
     9     8     9  ar
    10     8    10  ar
    11     9    13  ar
    12    10    11  ar
    13    11    12  ar
    14    12    13  ar
    15    13    14   1
    16    14    15   1
    17    15    16   1
    18    16    17   1
    19    17    18   1
    20    17    22   1
    21    18    19  ar
    22    18    20  ar
    23    18    21  ar
    24    22    23  ar
    25    22    24  ar
    26    22    25  ar
    27     1    26   1
    28     2    27   1
    29     3    28   1
    30     4    29   1
    31     5    30   1
    32     9    31   1
    33    10    32   1
    34    11    33   1
    35    12    34   1
    36    14    35   1
    37    14    36   1
    38    15    37   1
    39    15    38   1
    40    16    39   1
    41    16    40   1
    42    17    41   1
@<TRIPOS>SUBSTRUCTURE
     1  B65      1

