@<TRIPOS>MOLECULE
2zcq_ligand_041
    41    42
SMALL
GAST_HUCK
****
This file was generated by PARSER (from files_GN.cpp)

@<TRIPOS>ATOM
      1 CAL        26.5524   45.8928   39.3472 C.ar        1 B65      -0.0285
      2 CAH        27.3931   45.5995   40.4367 C.ar        1 B65      -0.0697
      3 CAG        28.5300   44.7924   40.2545 C.ar        1 B65      -0.0723
      4 CAI        28.8147   44.2586   38.9836 C.ar        1 B65      -0.0697
      5 CAM        27.9721   44.5447   37.8932 C.ar        1 B65      -0.0285
      6 CAU        26.8507   45.3919   38.0623 C.ar        1 B65       0.1159
      7 OAS        26.0203   45.7143   37.0180 O.3         1 B65      -0.2597
      8 CAV        26.6482   46.2729   35.9300 C.ar        1 B65       0.1094
      9 CAO        27.3249   47.5073   36.0124 C.ar        1 B65      -0.0276
     10 CAN        26.5095   45.6511   34.6748 C.ar        1 B65      -0.0354
     11 CAJ        27.0653   46.2337   33.5256 C.ar        1 B65      -0.0762
     12 CAK        27.7580   47.4501   33.6202 C.ar        1 B65      -0.0708
     13 CAT        27.8883   48.1066   34.8649 C.ar        1 B65      -0.0509
     14 CAQ        28.5543   49.4268   34.9465 C.3         1 B65      -0.0214
     15 CAP        27.5582   50.6253   35.0420 C.3         1 B65      -0.0405
     16 CAR        26.9677   50.9236   36.4561 C.3         1 B65      -0.0165
     17 CAW        25.6154   50.3007   36.9192 C.3         1 B65       0.1121
     18 PAX        24.6389   49.7157   35.6866 P.3         1 B65       0.0795
     19 OAB        25.2094   48.5810   35.0080 O.co2       1 B65      -0.5610
     20 OAC        23.3710   49.2591   36.1782 O.co2       1 B65      -0.5610
     21 OAA        24.3900   50.7248   34.6879 O.co2       1 B65      -0.5610
     22 SAY        24.7173   51.5457   37.8994 S.o2        1 B65      -0.1731
     23 OAF        23.4275   50.8261   38.7249 O.co2       1 B65      -0.4830
     24 OAE        24.1004   52.7634   36.8999 O.co2       1 B65      -0.4830
     25 OAD        25.7710   52.2534   39.0209 O.co2       1 B65      -0.4830
     26 H1         25.7368   46.4919   39.4841 H           1 B65       0.0552
     27 H2         27.1845   45.9848   41.3608 H           1 B65       0.0590
     28 H3         29.1468   44.5885   41.0458 H           1 B65       0.0528
     29 H4         29.6393   43.6652   38.8515 H           1 B65       0.0590
     30 H5         28.1889   44.1626   36.9704 H           1 B65       0.0552
     31 H6         27.4160   47.9672   36.9236 H           1 B65       0.0488
     32 H7         25.9970   44.7735   34.5899 H           1 B65       0.0496
     33 H8         26.9605   45.7742   32.6201 H           1 B65       0.0573
     34 H9         28.1387   47.8702   32.7697 H           1 B65       0.0470
     35 H10        29.1540   49.5463   34.0425 H           1 B65       0.0424
     36 H11        29.2621   49.4678   35.7803 H           1 B65       0.0424
     37 H12        26.7500   50.5160   34.3168 H           1 B65       0.0288
     38 H13        28.1072   51.5228   34.7348 H           1 B65       0.0288
     39 H14        26.8796   52.0117   36.5207 H           1 B65       0.0298
     40 H15        27.7301   50.6399   37.1934 H           1 B65       0.0298
     41 H16        25.8312   49.4755   37.5957 H           1 B65       0.0695
@<TRIPOS>BOND
     1     1     2  ar
     2     1     6  ar
     3     2     3  ar
     4     3     4  ar
     5     4     5  ar
     6     5     6  ar
     7     6     7   1
     8     7     8   1
     9     8     9  ar
    10     8    10  ar
    11     9    13  ar
    12    10    11  ar
    13    11    12  ar
    14    12    13  ar
    15    13    14   1
    16    14    15   1
    17    15    16   1
    18    16    17   1
    19    17    18   1
    20    17    22   1
    21    18    19  ar
    22    18    20  ar
    23    18    21  ar
    24    22    23  ar
    25    22    24  ar
    26    22    25  ar
    27     1    26   1
    28     2    27   1
    29     3    28   1
    30     4    29   1
    31     5    30   1
    32     9    31   1
    33    10    32   1
    34    11    33   1
    35    12    34   1
    36    14    35   1
    37    14    36   1
    38    15    37   1
    39    15    38   1
    40    16    39   1
    41    16    40   1
    42    17    41   1
@<TRIPOS>SUBSTRUCTURE
     1  B65      1

