@<TRIPOS>MOLECULE
2zcq_ligand_039
    41    42
SMALL
GAST_HUCK
****
This file was generated by PARSER (from files_GN.cpp)

@<TRIPOS>ATOM
      1 CAL        26.4125   47.7388   36.1332 C.ar        1 B65      -0.0285
      2 CAH        27.7554   47.6817   35.7132 C.ar        1 B65      -0.0697
      3 CAG        28.3734   48.8257   35.1730 C.ar        1 B65      -0.0723
      4 CAI        27.6422   50.0214   35.0375 C.ar        1 B65      -0.0697
      5 CAM        26.2990   50.0743   35.4476 C.ar        1 B65      -0.0285
      6 CAU        25.6808   48.9422   36.0230 C.ar        1 B65       0.1159
      7 OAS        24.3654   48.9987   36.4017 O.3         1 B65      -0.2597
      8 CAV        24.2249   49.3673   37.7135 C.ar        1 B65       0.1094
      9 CAO        24.1976   50.7272   38.0914 C.ar        1 B65      -0.0276
     10 CAN        24.0036   48.3775   38.6855 C.ar        1 B65      -0.0354
     11 CAJ        23.8274   48.7424   40.0308 C.ar        1 B65      -0.0762
     12 CAK        23.8594   50.0951   40.4082 C.ar        1 B65      -0.0708
     13 CAT        24.0054   51.1272   39.4366 C.ar        1 B65      -0.0509
     14 CAQ        23.9276   52.5986   39.7316 C.3         1 B65      -0.0214
     15 CAP        23.5231   53.0782   41.1692 C.3         1 B65      -0.0405
     16 CAR        22.6599   54.3824   41.2553 C.3         1 B65      -0.0165
     17 CAW        23.4419   55.7427   41.2214 C.3         1 B65       0.1121
     18 PAX        24.0573   56.2628   42.6925 P.3         1 B65       0.0795
     19 OAB        23.3210   57.3071   43.3753 O.co2       1 B65      -0.5610
     20 OAC        24.2770   55.2026   43.6540 O.co2       1 B65      -0.5610
     21 OAA        25.3705   56.8357   42.4865 O.co2       1 B65      -0.5610
     22 SAY        22.5108   57.0672   40.3650 S.o2        1 B65      -0.1731
     23 OAF        23.5799   57.8598   39.3226 O.co2       1 B65      -0.4830
     24 OAE        21.8426   58.2131   41.4150 O.co2       1 B65      -0.4830
     25 OAD        21.2352   56.4358   39.4479 O.co2       1 B65      -0.4830
     26 H1         25.9689   46.9017   36.5198 H           1 B65       0.0552
     27 H2         28.2820   46.8086   35.7943 H           1 B65       0.0590
     28 H3         29.3481   48.7848   34.8704 H           1 B65       0.0528
     29 H4         28.0853   50.8498   34.6332 H           1 B65       0.0590
     30 H5         25.7675   50.9404   35.3320 H           1 B65       0.0552
     31 H6         24.2926   51.4403   37.3625 H           1 B65       0.0488
     32 H7         23.9640   47.3922   38.4152 H           1 B65       0.0496
     33 H8         23.6672   48.0146   40.7339 H           1 B65       0.0573
     34 H9         23.7549   50.3182   41.3993 H           1 B65       0.0470
     35 H10        23.1959   53.0135   39.0313 H           1 B65       0.0424
     36 H11        24.8945   53.0455   39.4783 H           1 B65       0.0424
     37 H12        24.4316   53.1823   41.7679 H           1 B65       0.0288
     38 H13        22.9182   52.2970   41.6320 H           1 B65       0.0288
     39 H14        22.0540   54.3544   42.1662 H           1 B65       0.0298
     40 H15        21.9440   54.3299   40.4339 H           1 B65       0.0298
     41 H16        24.3109   55.5653   40.5838 H           1 B65       0.0695
@<TRIPOS>BOND
     1     1     2  ar
     2     1     6  ar
     3     2     3  ar
     4     3     4  ar
     5     4     5  ar
     6     5     6  ar
     7     6     7   1
     8     7     8   1
     9     8     9  ar
    10     8    10  ar
    11     9    13  ar
    12    10    11  ar
    13    11    12  ar
    14    12    13  ar
    15    13    14   1
    16    14    15   1
    17    15    16   1
    18    16    17   1
    19    17    18   1
    20    17    22   1
    21    18    19  ar
    22    18    20  ar
    23    18    21  ar
    24    22    23  ar
    25    22    24  ar
    26    22    25  ar
    27     1    26   1
    28     2    27   1
    29     3    28   1
    30     4    29   1
    31     5    30   1
    32     9    31   1
    33    10    32   1
    34    11    33   1
    35    12    34   1
    36    14    35   1
    37    14    36   1
    38    15    37   1
    39    15    38   1
    40    16    39   1
    41    16    40   1
    42    17    41   1
@<TRIPOS>SUBSTRUCTURE
     1  B65      1

