@<TRIPOS>MOLECULE
2zcq_ligand_027
    41    42
SMALL
GAST_HUCK
****
This file was generated by PARSER (from files_GN.cpp)

@<TRIPOS>ATOM
      1 CAL        27.8390   50.3750   41.9934 C.ar        1 B65      -0.0285
      2 CAH        28.2259   51.7016   41.7283 C.ar        1 B65      -0.0697
      3 CAG        29.5913   52.0467   41.7103 C.ar        1 B65      -0.0723
      4 CAI        30.5663   51.0617   41.9579 C.ar        1 B65      -0.0697
      5 CAM        30.1774   49.7330   42.2164 C.ar        1 B65      -0.0285
      6 CAU        28.8148   49.3747   42.2225 C.ar        1 B65       0.1159
      7 OAS        28.4727   48.0848   42.5416 O.3         1 B65      -0.2597
      8 CAV        28.0019   47.3815   41.4656 C.ar        1 B65       0.1094
      9 CAO        26.6108   47.2959   41.2486 C.ar        1 B65      -0.0276
     10 CAN        28.8840   46.7084   40.5915 C.ar        1 B65      -0.0354
     11 CAJ        28.3710   45.9888   39.4961 C.ar        1 B65      -0.0762
     12 CAK        26.9832   45.9514   39.2600 C.ar        1 B65      -0.0708
     13 CAT        26.0863   46.6137   40.1263 C.ar        1 B65      -0.0509
     14 CAQ        24.6267   46.6517   39.8391 C.3         1 B65      -0.0214
     15 CAP        24.2612   47.5621   38.6352 C.3         1 B65      -0.0405
     16 CAR        24.6381   49.0586   38.8429 C.3         1 B65      -0.0165
     17 CAW        24.2075   50.0507   37.7172 C.3         1 B65       0.1121
     18 PAX        25.0168   49.8473   36.2656 P.3         1 B65       0.0795
     19 OAB        24.6573   50.8301   35.2755 O.co2       1 B65      -0.5610
     20 OAC        26.4477   49.8591   36.4320 O.co2       1 B65      -0.5610
     21 OAA        24.6621   48.5911   35.6568 O.co2       1 B65      -0.5610
     22 SAY        24.3718   51.7593   38.3215 S.o2        1 B65      -0.1731
     23 OAF        23.8141   52.8527   37.1606 O.co2       1 B65      -0.4830
     24 OAE        25.9798   52.1171   38.7057 O.co2       1 B65      -0.4830
     25 OAD        23.4231   51.9530   39.7066 O.co2       1 B65      -0.4830
     26 H1         26.8452   50.1434   42.0198 H           1 B65       0.0552
     27 H2         27.5148   52.4169   41.5601 H           1 B65       0.0590
     28 H3         29.8718   53.0128   41.5325 H           1 B65       0.0528
     29 H4         31.5571   51.3148   41.9567 H           1 B65       0.0590
     30 H5         30.8919   49.0264   42.4061 H           1 B65       0.0552
     31 H6         25.9833   47.7701   41.8996 H           1 B65       0.0488
     32 H7         29.8924   46.7469   40.7499 H           1 B65       0.0496
     33 H8         29.0117   45.5014   38.8658 H           1 B65       0.0573
     34 H9         26.6337   45.4382   38.4449 H           1 B65       0.0470
     35 H10        24.0708   47.0062   40.7138 H           1 B65       0.0424
     36 H11        24.2815   45.6330   39.6388 H           1 B65       0.0424
     37 H12        23.1802   47.4951   38.4619 H           1 B65       0.0288
     38 H13        24.7619   47.1670   37.7498 H           1 B65       0.0288
     39 H14        25.7177   49.1421   38.9966 H           1 B65       0.0298
     40 H15        24.1545   49.3708   39.7756 H           1 B65       0.0298
     41 H16        23.1424   49.8990   37.5190 H           1 B65       0.0695
@<TRIPOS>BOND
     1     1     2  ar
     2     1     6  ar
     3     2     3  ar
     4     3     4  ar
     5     4     5  ar
     6     5     6  ar
     7     6     7   1
     8     7     8   1
     9     8     9  ar
    10     8    10  ar
    11     9    13  ar
    12    10    11  ar
    13    11    12  ar
    14    12    13  ar
    15    13    14   1
    16    14    15   1
    17    15    16   1
    18    16    17   1
    19    17    18   1
    20    17    22   1
    21    18    19  ar
    22    18    20  ar
    23    18    21  ar
    24    22    23  ar
    25    22    24  ar
    26    22    25  ar
    27     1    26   1
    28     2    27   1
    29     3    28   1
    30     4    29   1
    31     5    30   1
    32     9    31   1
    33    10    32   1
    34    11    33   1
    35    12    34   1
    36    14    35   1
    37    14    36   1
    38    15    37   1
    39    15    38   1
    40    16    39   1
    41    16    40   1
    42    17    41   1
@<TRIPOS>SUBSTRUCTURE
     1  B65      1

