@<TRIPOS>MOLECULE
2zcq_ligand_051
    41    42
SMALL
GAST_HUCK
****
This file was generated by PARSER (from files_GN.cpp)

@<TRIPOS>ATOM
      1 CAL        26.7028   49.1721   35.1909 C.ar        1 B65      -0.0285
      2 CAH        27.7897   49.0384   34.3007 C.ar        1 B65      -0.0697
      3 CAG        27.9833   47.8350   33.5984 C.ar        1 B65      -0.0723
      4 CAI        27.0725   46.7757   33.7599 C.ar        1 B65      -0.0697
      5 CAM        25.9794   46.9137   34.6326 C.ar        1 B65      -0.0285
      6 CAU        25.8034   48.1002   35.3808 C.ar        1 B65       0.1159
      7 OAS        24.7220   48.2289   36.2186 O.3         1 B65      -0.2597
      8 CAV        24.9352   47.7770   37.4950 C.ar        1 B65       0.1094
      9 CAO        24.8853   48.6822   38.5768 C.ar        1 B65      -0.0276
     10 CAN        25.0811   46.4018   37.7630 C.ar        1 B65      -0.0354
     11 CAJ        25.2004   45.9380   39.0823 C.ar        1 B65      -0.0762
     12 CAK        25.1594   46.8444   40.1531 C.ar        1 B65      -0.0708
     13 CAT        24.9910   48.2276   39.9147 C.ar        1 B65      -0.0509
     14 CAQ        24.9631   49.1988   41.0453 C.3         1 B65      -0.0214
     15 CAP        23.5830   49.9023   41.2148 C.3         1 B65      -0.0405
     16 CAR        23.5524   51.0104   42.3084 C.3         1 B65      -0.0165
     17 CAW        24.5393   52.2086   42.0636 C.3         1 B65       0.1121
     18 PAX        25.5872   52.5286   43.3351 P.3         1 B65       0.0795
     19 OAB        25.4240   53.7709   44.0690 O.co2       1 B65      -0.5610
     20 OAC        25.6771   51.4782   44.3247 O.co2       1 B65      -0.5610
     21 OAA        26.9460   52.5701   42.8270 O.co2       1 B65      -0.5610
     22 SAY        23.7063   53.6916   41.3786 S.o2        1 B65      -0.1731
     23 OAF        24.2061   53.8929   39.7772 O.co2       1 B65      -0.4830
     24 OAE        24.1034   55.1095   42.2169 O.co2       1 B65      -0.4830
     25 OAD        22.0214   53.5532   41.3752 O.co2       1 B65      -0.4830
     26 H1         26.5613   50.0515   35.6920 H           1 B65       0.0552
     27 H2         28.4335   49.8205   34.1639 H           1 B65       0.0590
     28 H3         28.7774   47.7380   32.9588 H           1 B65       0.0528
     29 H4         27.2044   45.9069   33.2340 H           1 B65       0.0590
     30 H5         25.3098   46.1444   34.7228 H           1 B65       0.0552
     31 H6         24.7548   49.6785   38.3772 H           1 B65       0.0488
     32 H7         25.0836   45.7235   37.0010 H           1 B65       0.0496
     33 H8         25.3079   44.9444   39.2654 H           1 B65       0.0573
     34 H9         25.2506   46.4900   41.1090 H           1 B65       0.0470
     35 H10        25.7465   49.9379   40.8674 H           1 B65       0.0424
     36 H11        25.1939   48.6907   41.9920 H           1 B65       0.0424
     37 H12        22.8457   49.1332   41.4840 H           1 B65       0.0288
     38 H13        23.2545   50.3360   40.2623 H           1 B65       0.0288
     39 H14        23.7395   50.4952   43.2551 H           1 B65       0.0298
     40 H15        22.5269   51.3673   42.3929 H           1 B65       0.0298
     41 H16        25.1877   51.9071   41.2503 H           1 B65       0.0695
@<TRIPOS>BOND
     1     1     2  ar
     2     1     6  ar
     3     2     3  ar
     4     3     4  ar
     5     4     5  ar
     6     5     6  ar
     7     6     7   1
     8     7     8   1
     9     8     9  ar
    10     8    10  ar
    11     9    13  ar
    12    10    11  ar
    13    11    12  ar
    14    12    13  ar
    15    13    14   1
    16    14    15   1
    17    15    16   1
    18    16    17   1
    19    17    18   1
    20    17    22   1
    21    18    19  ar
    22    18    20  ar
    23    18    21  ar
    24    22    23  ar
    25    22    24  ar
    26    22    25  ar
    27     1    26   1
    28     2    27   1
    29     3    28   1
    30     4    29   1
    31     5    30   1
    32     9    31   1
    33    10    32   1
    34    11    33   1
    35    12    34   1
    36    14    35   1
    37    14    36   1
    38    15    37   1
    39    15    38   1
    40    16    39   1
    41    16    40   1
    42    17    41   1
@<TRIPOS>SUBSTRUCTURE
     1  B65      1

