@<TRIPOS>MOLECULE
2zcq_ligand_008
    41    42
SMALL
GAST_HUCK
****
This file was generated by PARSER (from files_GN.cpp)

@<TRIPOS>ATOM
      1 CAL        25.9768   45.5870   38.6110 C.ar        1 B65      -0.0285
      2 CAH        25.0706   45.7648   39.6730 C.ar        1 B65      -0.0697
      3 CAG        25.5198   45.6760   41.0038 C.ar        1 B65      -0.0723
      4 CAI        26.8693   45.3801   41.2700 C.ar        1 B65      -0.0697
      5 CAM        27.7774   45.2149   40.2066 C.ar        1 B65      -0.0285
      6 CAU        27.3450   45.3503   38.8683 C.ar        1 B65       0.1159
      7 OAS        28.2446   45.2408   37.8354 O.3         1 B65      -0.2597
      8 CAV        28.7924   46.4571   37.5003 C.ar        1 B65       0.1094
      9 CAO        28.1844   47.2690   36.5162 C.ar        1 B65      -0.0276
     10 CAN        29.9850   46.8984   38.1120 C.ar        1 B65      -0.0354
     11 CAJ        30.5092   48.1647   37.8032 C.ar        1 B65      -0.0762
     12 CAK        29.8316   49.0098   36.9070 C.ar        1 B65      -0.0708
     13 CAT        28.6490   48.5833   36.2557 C.ar        1 B65      -0.0509
     14 CAQ        28.0024   49.4565   35.2314 C.3         1 B65      -0.0214
     15 CAP        26.4432   49.5782   35.2143 C.3         1 B65      -0.0405
     16 CAR        25.7435   50.6815   36.0737 C.3         1 B65      -0.0165
     17 CAW        25.6241   50.5759   37.6321 C.3         1 B65       0.1121
     18 PAX        25.1098   49.0954   38.2179 P.3         1 B65       0.0795
     19 OAB        24.6241   49.1279   39.5756 O.co2       1 B65      -0.5610
     20 OAC        24.1325   48.4565   37.3676 O.co2       1 B65      -0.5610
     21 OAA        26.2568   48.2235   38.3060 O.co2       1 B65      -0.5610
     22 SAY        24.6044   51.9476   38.2874 S.o2        1 B65      -0.1731
     23 OAF        23.2105   51.4269   39.0968 O.co2       1 B65      -0.4830
     24 OAE        24.0620   52.9810   37.0641 O.co2       1 B65      -0.4830
     25 OAD        25.5655   52.8359   39.3551 O.co2       1 B65      -0.4830
     26 H1         25.6414   45.6583   37.6497 H           1 B65       0.0552
     27 H2         24.0914   45.9830   39.4801 H           1 B65       0.0590
     28 H3         24.8618   45.8056   41.7788 H           1 B65       0.0528
     29 H4         27.1888   45.2781   42.2376 H           1 B65       0.0590
     30 H5         28.7562   45.0066   40.4106 H           1 B65       0.0552
     31 H6         27.3640   46.9029   36.0245 H           1 B65       0.0488
     32 H7         30.4670   46.3019   38.7885 H           1 B65       0.0496
     33 H8         31.3843   48.4736   38.2353 H           1 B65       0.0573
     34 H9         30.2350   49.9246   36.7027 H           1 B65       0.0470
     35 H10        28.3082   49.0320   34.2693 H           1 B65       0.0424
     36 H11        28.4182   50.4685   35.2656 H           1 B65       0.0424
     37 H12        25.9853   48.6044   35.4002 H           1 B65       0.0288
     38 H13        26.1935   49.8331   34.1781 H           1 B65       0.0288
     39 H14        24.7277   50.7665   35.6762 H           1 B65       0.0298
     40 H15        26.2515   51.6205   35.8523 H           1 B65       0.0298
     41 H16        26.6228   50.7391   38.0458 H           1 B65       0.0695
@<TRIPOS>BOND
     1     1     2  ar
     2     1     6  ar
     3     2     3  ar
     4     3     4  ar
     5     4     5  ar
     6     5     6  ar
     7     6     7   1
     8     7     8   1
     9     8     9  ar
    10     8    10  ar
    11     9    13  ar
    12    10    11  ar
    13    11    12  ar
    14    12    13  ar
    15    13    14   1
    16    14    15   1
    17    15    16   1
    18    16    17   1
    19    17    18   1
    20    17    22   1
    21    18    19  ar
    22    18    20  ar
    23    18    21  ar
    24    22    23  ar
    25    22    24  ar
    26    22    25  ar
    27     1    26   1
    28     2    27   1
    29     3    28   1
    30     4    29   1
    31     5    30   1
    32     9    31   1
    33    10    32   1
    34    11    33   1
    35    12    34   1
    36    14    35   1
    37    14    36   1
    38    15    37   1
    39    15    38   1
    40    16    39   1
    41    16    40   1
    42    17    41   1
@<TRIPOS>SUBSTRUCTURE
     1  B65      1

