@<TRIPOS>MOLECULE
2zcq_ligand_014
    41    42
SMALL
GAST_HUCK
****
This file was generated by PARSER (from files_GN.cpp)

@<TRIPOS>ATOM
      1 CAL        28.7242   43.0804   36.8969 C.ar        1 B65      -0.0285
      2 CAH        28.1446   41.9252   36.3528 C.ar        1 B65      -0.0697
      3 CAG        28.2628   40.6925   37.0241 C.ar        1 B65      -0.0723
      4 CAI        28.9820   40.6195   38.2303 C.ar        1 B65      -0.0697
      5 CAM        29.5605   41.7741   38.7802 C.ar        1 B65      -0.0285
      6 CAU        29.4256   43.0176   38.1217 C.ar        1 B65       0.1159
      7 OAS        30.0033   44.1385   38.6623 O.3         1 B65      -0.2597
      8 CAV        29.1065   44.8770   39.3941 C.ar        1 B65       0.1094
      9 CAO        28.4072   45.9389   38.7862 C.ar        1 B65      -0.0276
     10 CAN        28.8905   44.5919   40.7580 C.ar        1 B65      -0.0354
     11 CAJ        27.9731   45.3567   41.4974 C.ar        1 B65      -0.0762
     12 CAK        27.2675   46.4023   40.8852 C.ar        1 B65      -0.0708
     13 CAT        27.4734   46.7093   39.5178 C.ar        1 B65      -0.0509
     14 CAQ        26.6906   47.7946   38.8717 C.3         1 B65      -0.0214
     15 CAP        27.2426   49.2260   39.1623 C.3         1 B65      -0.0405
     16 CAR        26.1615   50.3501   39.2309 C.3         1 B65      -0.0165
     17 CAW        25.7109   51.0928   37.9254 C.3         1 B65       0.1121
     18 PAX        24.3964   52.0849   38.2392 P.3         1 B65       0.0795
     19 OAB        24.7022   52.9790   39.3302 O.co2       1 B65      -0.5610
     20 OAC        23.9927   52.9218   37.1357 O.co2       1 B65      -0.5610
     21 OAA        23.2284   51.3239   38.6285 O.co2       1 B65      -0.5610
     22 SAY        25.3830   50.0302   36.4858 S.o2        1 B65      -0.1731
     23 OAF        24.7645   50.9390   35.2017 O.co2       1 B65      -0.4830
     24 OAE        24.2571   48.8314   36.8617 O.co2       1 B65      -0.4830
     25 OAD        26.8294   49.3310   35.9508 O.co2       1 B65      -0.4830
     26 H1         28.6433   43.9717   36.4033 H           1 B65       0.0552
     27 H2         27.6296   41.9782   35.4727 H           1 B65       0.0590
     28 H3         27.8390   39.8539   36.6301 H           1 B65       0.0528
     29 H4         29.0754   39.7233   38.7152 H           1 B65       0.0590
     30 H5         30.0881   41.7148   39.6549 H           1 B65       0.0552
     31 H6         28.5865   46.1517   37.7991 H           1 B65       0.0488
     32 H7         29.3983   43.8291   41.2116 H           1 B65       0.0496
     33 H8         27.8092   45.1386   42.4845 H           1 B65       0.0573
     34 H9         26.6010   46.9428   41.4358 H           1 B65       0.0470
     35 H10        25.6511   47.7120   39.2075 H           1 B65       0.0424
     36 H11        26.6666   47.6372   37.7907 H           1 B65       0.0424
     37 H12        28.0023   49.4912   38.4231 H           1 B65       0.0288
     38 H13        27.7464   49.2118   40.1368 H           1 B65       0.0288
     39 H14        26.5702   51.1213   39.8944 H           1 B65       0.0298
     40 H15        25.2862   49.9372   39.7426 H           1 B65       0.0298
     41 H16        26.5329   51.7464   37.6167 H           1 B65       0.0695
@<TRIPOS>BOND
     1     1     2  ar
     2     1     6  ar
     3     2     3  ar
     4     3     4  ar
     5     4     5  ar
     6     5     6  ar
     7     6     7   1
     8     7     8   1
     9     8     9  ar
    10     8    10  ar
    11     9    13  ar
    12    10    11  ar
    13    11    12  ar
    14    12    13  ar
    15    13    14   1
    16    14    15   1
    17    15    16   1
    18    16    17   1
    19    17    18   1
    20    17    22   1
    21    18    19  ar
    22    18    20  ar
    23    18    21  ar
    24    22    23  ar
    25    22    24  ar
    26    22    25  ar
    27     1    26   1
    28     2    27   1
    29     3    28   1
    30     4    29   1
    31     5    30   1
    32     9    31   1
    33    10    32   1
    34    11    33   1
    35    12    34   1
    36    14    35   1
    37    14    36   1
    38    15    37   1
    39    15    38   1
    40    16    39   1
    41    16    40   1
    42    17    41   1
@<TRIPOS>SUBSTRUCTURE
     1  B65      1

