@<TRIPOS>MOLECULE
2zcq_ligand_019
    41    42
SMALL
GAST_HUCK
****
This file was generated by PARSER (from files_GN.cpp)

@<TRIPOS>ATOM
      1 CAL        25.1546   46.6983   41.9104 C.ar        1 B65      -0.0285
      2 CAH        25.5039   45.3386   41.8784 C.ar        1 B65      -0.0697
      3 CAG        25.4848   44.5786   43.0616 C.ar        1 B65      -0.0723
      4 CAI        25.1491   45.1889   44.2846 C.ar        1 B65      -0.0697
      5 CAM        24.8190   46.5563   44.3168 C.ar        1 B65      -0.0285
      6 CAU        24.8134   47.3254   43.1320 C.ar        1 B65       0.1159
      7 OAS        24.3738   48.6276   43.2134 O.3         1 B65      -0.2597
      8 CAV        25.1614   49.5516   42.5752 C.ar        1 B65       0.1094
      9 CAO        24.6667   50.2048   41.4246 C.ar        1 B65      -0.0276
     10 CAN        26.4355   49.8787   43.0751 C.ar        1 B65      -0.0354
     11 CAJ        27.2238   50.8322   42.4097 C.ar        1 B65      -0.0762
     12 CAK        26.7377   51.4609   41.2509 C.ar        1 B65      -0.0708
     13 CAT        25.4483   51.1666   40.7453 C.ar        1 B65      -0.0509
     14 CAQ        24.9180   51.8779   39.5379 C.3         1 B65      -0.0214
     15 CAP        24.9376   51.0695   38.2081 C.3         1 B65      -0.0405
     16 CAR        26.3058   50.3843   37.8995 C.3         1 B65      -0.0165
     17 CAW        26.7091   50.1517   36.4053 C.3         1 B65       0.1121
     18 PAX        25.5237   49.5118   35.4096 P.3         1 B65       0.0795
     19 OAB        24.9017   50.6034   34.6952 O.co2       1 B65      -0.5610
     20 OAC        25.9767   48.5953   34.3862 O.co2       1 B65      -0.5610
     21 OAA        24.4463   48.8541   36.1103 O.co2       1 B65      -0.5610
     22 SAY        28.2207   49.1414   36.3659 S.o2        1 B65      -0.1731
     23 OAF        29.4328   49.8831   37.2787 O.co2       1 B65      -0.4830
     24 OAE        28.7745   48.9672   34.7790 O.co2       1 B65      -0.4830
     25 OAD        27.8901   47.6161   37.0155 O.co2       1 B65      -0.4830
     26 H1         25.1452   47.2341   41.0389 H           1 B65       0.0552
     27 H2         25.7640   44.9020   40.9922 H           1 B65       0.0590
     28 H3         25.7172   43.5809   43.0348 H           1 B65       0.0528
     29 H4         25.1391   44.6378   45.1463 H           1 B65       0.0590
     30 H5         24.5729   46.9925   45.2094 H           1 B65       0.0552
     31 H6         23.7239   49.9801   41.0922 H           1 B65       0.0488
     32 H7         26.7908   49.4275   43.9168 H           1 B65       0.0496
     33 H8         28.1538   51.0649   42.7686 H           1 B65       0.0573
     34 H9         27.3344   52.1435   40.7872 H           1 B65       0.0470
     35 H10        25.4818   52.7985   39.3671 H           1 B65       0.0424
     36 H11        23.8913   52.1851   39.7397 H           1 B65       0.0424
     37 H12        24.6841   51.7614   37.3916 H           1 B65       0.0288
     38 H13        24.1571   50.3075   38.2424 H           1 B65       0.0288
     39 H14        26.3159   49.4263   38.4306 H           1 B65       0.0298
     40 H15        27.0935   51.0023   38.3355 H           1 B65       0.0298
     41 H16        26.9889   51.1259   35.9899 H           1 B65       0.0695
@<TRIPOS>BOND
     1     1     2  ar
     2     1     6  ar
     3     2     3  ar
     4     3     4  ar
     5     4     5  ar
     6     5     6  ar
     7     6     7   1
     8     7     8   1
     9     8     9  ar
    10     8    10  ar
    11     9    13  ar
    12    10    11  ar
    13    11    12  ar
    14    12    13  ar
    15    13    14   1
    16    14    15   1
    17    15    16   1
    18    16    17   1
    19    17    18   1
    20    17    22   1
    21    18    19  ar
    22    18    20  ar
    23    18    21  ar
    24    22    23  ar
    25    22    24  ar
    26    22    25  ar
    27     1    26   1
    28     2    27   1
    29     3    28   1
    30     4    29   1
    31     5    30   1
    32     9    31   1
    33    10    32   1
    34    11    33   1
    35    12    34   1
    36    14    35   1
    37    14    36   1
    38    15    37   1
    39    15    38   1
    40    16    39   1
    41    16    40   1
    42    17    41   1
@<TRIPOS>SUBSTRUCTURE
     1  B65      1

