@<TRIPOS>MOLECULE
2zcq_ligand_050
    41    42
SMALL
GAST_HUCK
****
This file was generated by PARSER (from files_GN.cpp)

@<TRIPOS>ATOM
      1 CAL        15.2117   49.1946   37.1898 C.ar        1 B65      -0.0285
      2 CAH        15.5183   47.8625   36.8316 C.ar        1 B65      -0.0697
      3 CAG        16.4428   47.6099   35.8022 C.ar        1 B65      -0.0723
      4 CAI        17.0502   48.6826   35.1110 C.ar        1 B65      -0.0697
      5 CAM        16.7346   50.0081   35.4692 C.ar        1 B65      -0.0285
      6 CAU        15.8149   50.2874   36.5176 C.ar        1 B65       0.1159
      7 OAS        15.4647   51.5310   36.9931 O.3         1 B65      -0.2597
      8 CAV        16.2858   52.5966   36.7525 C.ar        1 B65       0.1094
      9 CAO        17.6090   52.6169   37.2333 C.ar        1 B65      -0.0276
     10 CAN        15.7808   53.7225   36.0552 C.ar        1 B65      -0.0354
     11 CAJ        16.6043   54.8445   35.8405 C.ar        1 B65      -0.0762
     12 CAK        17.9280   54.8408   36.3059 C.ar        1 B65      -0.0708
     13 CAT        18.4479   53.7278   37.0137 C.ar        1 B65      -0.0509
     14 CAQ        19.8720   53.6966   37.4164 C.3         1 B65      -0.0214
     15 CAP        20.2668   54.8159   38.4266 C.3         1 B65      -0.0405
     16 CAR        20.3673   54.3829   39.9218 C.3         1 B65      -0.0165
     17 CAW        21.7842   54.4027   40.5898 C.3         1 B65       0.1121
     18 PAX        22.4425   55.9291   40.8256 P.3         1 B65       0.0795
     19 OAB        23.5742   56.2029   39.9760 O.co2       1 B65      -0.5610
     20 OAC        21.4905   56.9955   40.6123 O.co2       1 B65      -0.5610
     21 OAA        22.9377   56.0923   42.1707 O.co2       1 B65      -0.5610
     22 SAY        22.9680   53.3224   39.7451 S.o2        1 B65      -0.1731
     23 OAF        24.5618   53.7790   40.0976 O.co2       1 B65      -0.4830
     24 OAE        22.7394   53.3851   38.0678 O.co2       1 B65      -0.4830
     25 OAD        22.7923   51.7143   40.2349 O.co2       1 B65      -0.4830
     26 H1         14.5540   49.3626   37.9437 H           1 B65       0.0552
     27 H2         15.0828   47.0846   37.3241 H           1 B65       0.0590
     28 H3         16.6856   46.6538   35.5580 H           1 B65       0.0528
     29 H4         17.7228   48.4990   34.3591 H           1 B65       0.0590
     30 H5         17.1858   50.7656   34.9621 H           1 B65       0.0552
     31 H6         17.9673   51.7877   37.7081 H           1 B65       0.0488
     32 H7         14.8197   53.7190   35.7048 H           1 B65       0.0496
     33 H8         16.2390   55.6512   35.3173 H           1 B65       0.0573
     34 H9         18.5164   55.6645   36.1278 H           1 B65       0.0470
     35 H10        20.5012   53.8007   36.5244 H           1 B65       0.0424
     36 H11        20.1390   52.7282   37.8613 H           1 B65       0.0424
     37 H12        19.5560   55.6468   38.3318 H           1 B65       0.0288
     38 H13        21.2307   55.2096   38.1070 H           1 B65       0.0288
     39 H14        19.9610   53.3847   40.0403 H           1 B65       0.0298
     40 H15        19.7100   55.0399   40.5081 H           1 B65       0.0298
     41 H16        21.6579   53.9757   41.5920 H           1 B65       0.0695
@<TRIPOS>BOND
     1     1     2  ar
     2     1     6  ar
     3     2     3  ar
     4     3     4  ar
     5     4     5  ar
     6     5     6  ar
     7     6     7   1
     8     7     8   1
     9     8     9  ar
    10     8    10  ar
    11     9    13  ar
    12    10    11  ar
    13    11    12  ar
    14    12    13  ar
    15    13    14   1
    16    14    15   1
    17    15    16   1
    18    16    17   1
    19    17    18   1
    20    17    22   1
    21    18    19  ar
    22    18    20  ar
    23    18    21  ar
    24    22    23  ar
    25    22    24  ar
    26    22    25  ar
    27     1    26   1
    28     2    27   1
    29     3    28   1
    30     4    29   1
    31     5    30   1
    32     9    31   1
    33    10    32   1
    34    11    33   1
    35    12    34   1
    36    14    35   1
    37    14    36   1
    38    15    37   1
    39    15    38   1
    40    16    39   1
    41    16    40   1
    42    17    41   1
@<TRIPOS>SUBSTRUCTURE
     1  B65      1

