@<TRIPOS>MOLECULE
2zcq_ligand_007
    41    42
SMALL
GAST_HUCK
****
This file was generated by PARSER (from files_GN.cpp)

@<TRIPOS>ATOM
      1 CAL        15.6599   51.6148   38.8123 C.ar        1 B65      -0.0285
      2 CAH        14.5090   51.3398   38.0514 C.ar        1 B65      -0.0697
      3 CAG        14.3693   50.0943   37.4075 C.ar        1 B65      -0.0723
      4 CAI        15.3799   49.1230   37.5361 C.ar        1 B65      -0.0697
      5 CAM        16.5327   49.4054   38.2893 C.ar        1 B65      -0.0285
      6 CAU        16.6952   50.6574   38.9193 C.ar        1 B65       0.1159
      7 OAS        17.8468   50.9005   39.6205 O.3         1 B65      -0.2597
      8 CAV        18.6172   51.8767   39.0544 C.ar        1 B65       0.1094
      9 CAO        19.1984   51.7115   37.7826 C.ar        1 B65      -0.0276
     10 CAN        18.7946   53.0917   39.7473 C.ar        1 B65      -0.0354
     11 CAJ        19.4763   54.1604   39.1411 C.ar        1 B65      -0.0762
     12 CAK        20.0028   54.0112   37.8485 C.ar        1 B65      -0.0708
     13 CAT        19.8950   52.7736   37.1652 C.ar        1 B65      -0.0509
     14 CAQ        20.5512   52.5825   35.8423 C.3         1 B65      -0.0214
     15 CAP        21.9204   51.8198   35.8784 C.3         1 B65      -0.0405
     16 CAR        22.6217   51.6481   37.2611 C.3         1 B65      -0.0165
     17 CAW        24.1830   51.5849   37.2893 C.3         1 B65       0.1121
     18 PAX        24.8834   50.4061   36.3369 P.3         1 B65       0.0795
     19 OAB        24.1593   49.1586   36.3829 O.co2       1 B65      -0.5610
     20 OAC        24.8937   50.8571   34.9664 O.co2       1 B65      -0.5610
     21 OAA        26.2673   50.1631   36.6840 O.co2       1 B65      -0.5610
     22 SAY        24.7294   51.4192   39.0160 S.o2        1 B65      -0.1731
     23 OAF        26.3055   52.0106   39.1717 O.co2       1 B65      -0.4830
     24 OAE        24.6609   49.7995   39.5027 O.co2       1 B65      -0.4830
     25 OAD        23.7342   52.3264   40.0408 O.co2       1 B65      -0.4830
     26 H1         15.7464   52.5249   39.2706 H           1 B65       0.0552
     27 H2         13.7665   52.0438   37.9767 H           1 B65       0.0590
     28 H3         13.5287   49.8919   36.8644 H           1 B65       0.0528
     29 H4         15.2732   48.2114   37.0857 H           1 B65       0.0590
     30 H5         17.2637   48.6997   38.3765 H           1 B65       0.0552
     31 H6         19.1247   50.8115   37.3089 H           1 B65       0.0488
     32 H7         18.4065   53.2079   40.6863 H           1 B65       0.0496
     33 H8         19.5954   55.0436   39.6459 H           1 B65       0.0573
     34 H9         20.5121   54.7947   37.4296 H           1 B65       0.0470
     35 H10        20.7094   53.5549   35.3748 H           1 B65       0.0424
     36 H11        19.8641   52.0524   35.1761 H           1 B65       0.0424
     37 H12        22.6039   52.3484   35.2134 H           1 B65       0.0288
     38 H13        21.7799   50.8209   35.4468 H           1 B65       0.0288
     39 H14        22.2134   50.7508   37.7386 H           1 B65       0.0298
     40 H15        22.3513   52.5050   37.8795 H           1 B65       0.0298
     41 H16        24.5552   52.5482   36.9335 H           1 B65       0.0695
@<TRIPOS>BOND
     1     1     2  ar
     2     1     6  ar
     3     2     3  ar
     4     3     4  ar
     5     4     5  ar
     6     5     6  ar
     7     6     7   1
     8     7     8   1
     9     8     9  ar
    10     8    10  ar
    11     9    13  ar
    12    10    11  ar
    13    11    12  ar
    14    12    13  ar
    15    13    14   1
    16    14    15   1
    17    15    16   1
    18    16    17   1
    19    17    18   1
    20    17    22   1
    21    18    19  ar
    22    18    20  ar
    23    18    21  ar
    24    22    23  ar
    25    22    24  ar
    26    22    25  ar
    27     1    26   1
    28     2    27   1
    29     3    28   1
    30     4    29   1
    31     5    30   1
    32     9    31   1
    33    10    32   1
    34    11    33   1
    35    12    34   1
    36    14    35   1
    37    14    36   1
    38    15    37   1
    39    15    38   1
    40    16    39   1
    41    16    40   1
    42    17    41   1
@<TRIPOS>SUBSTRUCTURE
     1  B65      1

