@<TRIPOS>MOLECULE
2zcq_ligand_029
    41    42
SMALL
GAST_HUCK
****
This file was generated by PARSER (from files_GN.cpp)

@<TRIPOS>ATOM
      1 CAL        25.7918   51.6226   37.5582 C.ar        1 B65      -0.0285
      2 CAH        24.9965   51.3235   36.4355 C.ar        1 B65      -0.0697
      3 CAG        23.5995   51.5051   36.4937 C.ar        1 B65      -0.0723
      4 CAI        23.0034   52.0277   37.6535 C.ar        1 B65      -0.0697
      5 CAM        23.8022   52.3523   38.7686 C.ar        1 B65      -0.0285
      6 CAU        25.1903   52.1120   38.7367 C.ar        1 B65       0.1159
      7 OAS        25.9211   52.2755   39.8874 O.3         1 B65      -0.2597
      8 CAV        26.1529   51.1276   40.6185 C.ar        1 B65       0.1094
      9 CAO        25.2261   50.0572   40.7687 C.ar        1 B65      -0.0276
     10 CAN        27.4028   51.0153   41.2574 C.ar        1 B65      -0.0354
     11 CAJ        27.7398   49.8525   41.9759 C.ar        1 B65      -0.0762
     12 CAK        26.8412   48.7726   42.0360 C.ar        1 B65      -0.0708
     13 CAT        25.5744   48.8572   41.4158 C.ar        1 B65      -0.0509
     14 CAQ        24.6499   47.6844   41.3913 C.3         1 B65      -0.0214
     15 CAP        25.0514   46.5887   40.3600 C.3         1 B65      -0.0405
     16 CAR        25.0886   47.0642   38.8654 C.3         1 B65      -0.0165
     17 CAW        26.3556   46.7737   37.9893 C.3         1 B65       0.1121
     18 PAX        27.8218   47.3158   38.6108 P.3         1 B65       0.0795
     19 OAB        28.2493   46.5719   39.7598 O.co2       1 B65      -0.5610
     20 OAC        28.8818   47.1275   37.6622 O.co2       1 B65      -0.5610
     21 OAA        27.7857   48.7082   38.9415 O.co2       1 B65      -0.5610
     22 SAY        26.1000   47.4499   36.3109 S.o2        1 B65      -0.1731
     23 OAF        26.3376   46.2222   35.1734 O.co2       1 B65      -0.4830
     24 OAE        27.1625   48.7180   35.9545 O.co2       1 B65      -0.4830
     25 OAD        24.5280   48.0501   36.1410 O.co2       1 B65      -0.4830
     26 H1         26.8012   51.4621   37.5233 H           1 B65       0.0552
     27 H2         25.4284   50.9659   35.5833 H           1 B65       0.0590
     28 H3         23.0201   51.2637   35.6857 H           1 B65       0.0528
     29 H4         21.9927   52.1701   37.6936 H           1 B65       0.0590
     30 H5         23.3649   52.7103   39.6189 H           1 B65       0.0552
     31 H6         24.3030   50.1337   40.3406 H           1 B65       0.0488
     32 H7         28.0803   51.7780   41.1928 H           1 B65       0.0496
     33 H8         28.6527   49.7801   42.4325 H           1 B65       0.0573
     34 H9         27.1145   47.9215   42.5273 H           1 B65       0.0470
     35 H10        23.6287   48.0055   41.1629 H           1 B65       0.0424
     36 H11        24.6207   47.2442   42.3899 H           1 B65       0.0424
     37 H12        24.3312   45.7749   40.4492 H           1 B65       0.0288
     38 H13        26.0047   46.1566   40.6632 H           1 B65       0.0288
     39 H14        24.8934   48.1361   38.8210 H           1 B65       0.0298
     40 H15        24.2373   46.5866   38.3670 H           1 B65       0.0298
     41 H16        26.4445   45.6906   37.8832 H           1 B65       0.0695
@<TRIPOS>BOND
     1     1     2  ar
     2     1     6  ar
     3     2     3  ar
     4     3     4  ar
     5     4     5  ar
     6     5     6  ar
     7     6     7   1
     8     7     8   1
     9     8     9  ar
    10     8    10  ar
    11     9    13  ar
    12    10    11  ar
    13    11    12  ar
    14    12    13  ar
    15    13    14   1
    16    14    15   1
    17    15    16   1
    18    16    17   1
    19    17    18   1
    20    17    22   1
    21    18    19  ar
    22    18    20  ar
    23    18    21  ar
    24    22    23  ar
    25    22    24  ar
    26    22    25  ar
    27     1    26   1
    28     2    27   1
    29     3    28   1
    30     4    29   1
    31     5    30   1
    32     9    31   1
    33    10    32   1
    34    11    33   1
    35    12    34   1
    36    14    35   1
    37    14    36   1
    38    15    37   1
    39    15    38   1
    40    16    39   1
    41    16    40   1
    42    17    41   1
@<TRIPOS>SUBSTRUCTURE
     1  B65      1

