@<TRIPOS>MOLECULE
2zcq_ligand_030
    41    42
SMALL
GAST_HUCK
****
This file was generated by PARSER (from files_GN.cpp)

@<TRIPOS>ATOM
      1 CAL        13.3591   55.1753   40.7838 C.ar        1 B65      -0.0285
      2 CAH        12.6852   55.9994   41.7104 C.ar        1 B65      -0.0697
      3 CAG        11.7313   55.4468   42.5774 C.ar        1 B65      -0.0723
      4 CAI        11.4390   54.0715   42.5223 C.ar        1 B65      -0.0697
      5 CAM        12.1067   53.2471   41.5984 C.ar        1 B65      -0.0285
      6 CAU        13.0871   53.7915   40.7340 C.ar        1 B65       0.1159
      7 OAS        13.6873   52.9781   39.8055 O.3         1 B65      -0.2597
      8 CAV        14.9153   52.5084   40.1953 C.ar        1 B65       0.1094
      9 CAO        16.0612   52.8926   39.4792 C.ar        1 B65      -0.0276
     10 CAN        15.0402   51.5683   41.2491 C.ar        1 B65      -0.0354
     11 CAJ        16.3041   51.0715   41.6050 C.ar        1 B65      -0.0762
     12 CAK        17.4495   51.4865   40.8958 C.ar        1 B65      -0.0708
     13 CAT        17.3421   52.3874   39.8170 C.ar        1 B65      -0.0509
     14 CAQ        18.5594   52.8174   39.0713 C.3         1 B65      -0.0214
     15 CAP        19.2991   53.9783   39.8041 C.3         1 B65      -0.0405
     16 CAR        20.3304   54.7780   38.9448 C.3         1 B65      -0.0165
     17 CAW        21.8023   54.2662   38.7757 C.3         1 B65       0.1121
     18 PAX        22.0135   52.9069   37.8234 P.3         1 B65       0.0795
     19 OAB        21.8554   51.6244   38.4610 O.co2       1 B65      -0.5610
     20 OAC        21.1591   52.9200   36.6598 O.co2       1 B65      -0.5610
     21 OAA        23.3573   52.9010   37.2983 O.co2       1 B65      -0.5610
     22 SAY        22.7316   54.2010   40.3397 S.o2        1 B65      -0.1731
     23 OAF        23.9882   55.3270   40.2501 O.co2       1 B65      -0.4830
     24 OAE        23.3939   52.6741   40.6345 O.co2       1 B65      -0.4830
     25 OAD        21.7352   54.6248   41.6383 O.co2       1 B65      -0.4830
     26 H1         14.0451   55.5867   40.1444 H           1 B65       0.0552
     27 H2         12.8915   57.0000   41.7432 H           1 B65       0.0590
     28 H3         11.2380   56.0429   43.2418 H           1 B65       0.0528
     29 H4         10.7410   53.6684   43.1507 H           1 B65       0.0590
     30 H5         11.8819   52.2520   41.5479 H           1 B65       0.0552
     31 H6         15.9575   53.5529   38.7076 H           1 B65       0.0488
     32 H7         14.2115   51.2501   41.7536 H           1 B65       0.0496
     33 H8         16.3962   50.4096   42.3840 H           1 B65       0.0573
     34 H9         18.3629   51.1177   41.1734 H           1 B65       0.0470
     35 H10        18.2774   53.1559   38.0655 H           1 B65       0.0424
     36 H11        19.2306   51.9599   38.9457 H           1 B65       0.0424
     37 H12        19.8087   53.5957   40.6990 H           1 B65       0.0288
     38 H13        18.5390   54.7049   40.1348 H           1 B65       0.0288
     39 H14        20.4075   55.7722   39.3954 H           1 B65       0.0298
     40 H15        19.9037   54.9422   37.9468 H           1 B65       0.0298
     41 H16        22.2977   55.0593   38.2190 H           1 B65       0.0695
@<TRIPOS>BOND
     1     1     2  ar
     2     1     6  ar
     3     2     3  ar
     4     3     4  ar
     5     4     5  ar
     6     5     6  ar
     7     6     7   1
     8     7     8   1
     9     8     9  ar
    10     8    10  ar
    11     9    13  ar
    12    10    11  ar
    13    11    12  ar
    14    12    13  ar
    15    13    14   1
    16    14    15   1
    17    15    16   1
    18    16    17   1
    19    17    18   1
    20    17    22   1
    21    18    19  ar
    22    18    20  ar
    23    18    21  ar
    24    22    23  ar
    25    22    24  ar
    26    22    25  ar
    27     1    26   1
    28     2    27   1
    29     3    28   1
    30     4    29   1
    31     5    30   1
    32     9    31   1
    33    10    32   1
    34    11    33   1
    35    12    34   1
    36    14    35   1
    37    14    36   1
    38    15    37   1
    39    15    38   1
    40    16    39   1
    41    16    40   1
    42    17    41   1
@<TRIPOS>SUBSTRUCTURE
     1  B65      1

