@<TRIPOS>MOLECULE
2zcq_ligand_012
    41    42
SMALL
GAST_HUCK
****
This file was generated by PARSER (from files_GN.cpp)

@<TRIPOS>ATOM
      1 CAL        27.2390   45.5244   42.4703 C.ar        1 B65      -0.0285
      2 CAH        28.0978   45.1893   41.4039 C.ar        1 B65      -0.0697
      3 CAG        27.6368   45.2605   40.0764 C.ar        1 B65      -0.0723
      4 CAI        26.3079   45.6386   39.8125 C.ar        1 B65      -0.0697
      5 CAM        25.4448   45.9452   40.8773 C.ar        1 B65      -0.0285
      6 CAU        25.9134   45.9292   42.2115 C.ar        1 B65       0.1159
      7 OAS        25.0760   46.2546   43.2504 O.3         1 B65      -0.2597
      8 CAV        24.9714   47.6130   43.4510 C.ar        1 B65       0.1094
      9 CAO        24.3054   48.4458   42.5227 C.ar        1 B65      -0.0276
     10 CAN        25.4791   48.1788   44.6364 C.ar        1 B65      -0.0354
     11 CAJ        25.3651   49.5665   44.8612 C.ar        1 B65      -0.0762
     12 CAK        24.7528   50.3902   43.9054 C.ar        1 B65      -0.0708
     13 CAT        24.2145   49.8428   42.7187 C.ar        1 B65      -0.0509
     14 CAQ        23.5654   50.7133   41.6989 C.3         1 B65      -0.0214
     15 CAP        24.5201   51.7997   41.1015 C.3         1 B65      -0.0405
     16 CAR        24.4456   51.9549   39.5553 C.3         1 B65      -0.0165
     17 CAW        24.9589   50.7595   38.6796 C.3         1 B65       0.1121
     18 PAX        26.5864   50.4122   38.8708 P.3         1 B65       0.0795
     19 OAB        26.7932   49.5901   40.0370 O.co2       1 B65      -0.5610
     20 OAC        27.1513   49.6349   37.7967 O.co2       1 B65      -0.5610
     21 OAA        27.3547   51.6199   39.0408 O.co2       1 B65      -0.5610
     22 SAY        24.5309   51.0391   36.9258 S.o2        1 B65      -0.1731
     23 OAF        23.6250   52.4551   36.7339 O.co2       1 B65      -0.4830
     24 OAE        23.6228   49.7182   36.3910 O.co2       1 B65      -0.4830
     25 OAD        25.8888   51.1766   35.9279 O.co2       1 B65      -0.4830
     26 H1         27.5811   45.4760   43.4332 H           1 B65       0.0552
     27 H2         29.0567   44.8920   41.5959 H           1 B65       0.0590
     28 H3         28.2619   45.0248   39.3021 H           1 B65       0.0528
     29 H4         25.9638   45.6740   38.8501 H           1 B65       0.0590
     30 H5         24.4758   46.1930   40.6716 H           1 B65       0.0552
     31 H6         23.8887   48.0338   41.6846 H           1 B65       0.0488
     32 H7         25.9341   47.5890   45.3327 H           1 B65       0.0496
     33 H8         25.7363   49.9770   45.7158 H           1 B65       0.0573
     34 H9         24.6972   51.3976   44.0705 H           1 B65       0.0470
     35 H10        22.7049   51.2009   42.1649 H           1 B65       0.0424
     36 H11        23.1495   50.0959   40.8982 H           1 B65       0.0424
     37 H12        25.5596   51.6262   41.3866 H           1 B65       0.0288
     38 H13        24.2516   52.7631   41.5459 H           1 B65       0.0288
     39 H14        24.9995   52.8552   39.2750 H           1 B65       0.0298
     40 H15        23.3962   52.1502   39.3183 H           1 B65       0.0298
     41 H16        24.4246   49.8557   38.9770 H           1 B65       0.0695
@<TRIPOS>BOND
     1     1     2  ar
     2     1     6  ar
     3     2     3  ar
     4     3     4  ar
     5     4     5  ar
     6     5     6  ar
     7     6     7   1
     8     7     8   1
     9     8     9  ar
    10     8    10  ar
    11     9    13  ar
    12    10    11  ar
    13    11    12  ar
    14    12    13  ar
    15    13    14   1
    16    14    15   1
    17    15    16   1
    18    16    17   1
    19    17    18   1
    20    17    22   1
    21    18    19  ar
    22    18    20  ar
    23    18    21  ar
    24    22    23  ar
    25    22    24  ar
    26    22    25  ar
    27     1    26   1
    28     2    27   1
    29     3    28   1
    30     4    29   1
    31     5    30   1
    32     9    31   1
    33    10    32   1
    34    11    33   1
    35    12    34   1
    36    14    35   1
    37    14    36   1
    38    15    37   1
    39    15    38   1
    40    16    39   1
    41    16    40   1
    42    17    41   1
@<TRIPOS>SUBSTRUCTURE
     1  B65      1

