@<TRIPOS>MOLECULE
2zcq_ligand_057
    41    42
SMALL
GAST_HUCK
****
This file was generated by PARSER (from files_GN.cpp)

@<TRIPOS>ATOM
      1 CAL        17.5282   52.3488   36.0415 C.ar        1 B65      -0.0285
      2 CAH        17.2166   51.0297   35.6625 C.ar        1 B65      -0.0697
      3 CAG        18.2491   50.1051   35.4198 C.ar        1 B65      -0.0723
      4 CAI        19.5917   50.4974   35.5552 C.ar        1 B65      -0.0697
      5 CAM        19.9015   51.8111   35.9687 C.ar        1 B65      -0.0285
      6 CAU        18.8728   52.7349   36.2453 C.ar        1 B65       0.1159
      7 OAS        19.1663   54.0099   36.6663 O.3         1 B65      -0.2597
      8 CAV        19.2045   54.1346   38.0349 C.ar        1 B65       0.1094
      9 CAO        20.4309   54.4225   38.6743 C.ar        1 B65      -0.0276
     10 CAN        18.0268   54.0765   38.8123 C.ar        1 B65      -0.0354
     11 CAJ        18.0855   54.2125   40.2080 C.ar        1 B65      -0.0762
     12 CAK        19.3149   54.4537   40.8377 C.ar        1 B65      -0.0708
     13 CAT        20.5004   54.5943   40.0755 C.ar        1 B65      -0.0509
     14 CAQ        21.7789   54.9525   40.7509 C.3         1 B65      -0.0214
     15 CAP        22.2430   56.4238   40.4786 C.3         1 B65      -0.0405
     16 CAR        22.9384   57.1365   41.6909 C.3         1 B65      -0.0165
     17 CAW        24.3725   57.7189   41.4687 C.3         1 B65       0.1121
     18 PAX        25.1858   57.9791   42.9152 P.3         1 B65       0.0795
     19 OAB        24.2942   58.1969   44.0278 O.co2       1 B65      -0.5610
     20 OAC        25.8899   56.7564   43.2324 O.co2       1 B65      -0.5610
     21 OAA        26.1836   59.0211   42.9210 O.co2       1 B65      -0.5610
     22 SAY        24.3450   59.1704   40.3765 S.o2        1 B65      -0.1731
     23 OAF        25.8259   59.9893   40.4183 O.co2       1 B65      -0.4830
     24 OAE        23.1079   60.2399   40.8082 O.co2       1 B65      -0.4830
     25 OAD        24.0895   58.6575   38.7851 O.co2       1 B65      -0.4830
     26 H1         16.7735   53.0195   36.1864 H           1 B65       0.0552
     27 H2         16.2412   50.7375   35.5597 H           1 B65       0.0590
     28 H3         18.0213   49.1481   35.1371 H           1 B65       0.0528
     29 H4         20.3415   49.8316   35.3643 H           1 B65       0.0590
     30 H5         20.8788   52.0898   36.0748 H           1 B65       0.0552
     31 H6         21.2767   54.5235   38.1115 H           1 B65       0.0488
     32 H7         17.1253   53.9323   38.3604 H           1 B65       0.0496
     33 H8         17.2299   54.1448   40.7615 H           1 B65       0.0573
     34 H9         19.3292   54.5571   41.8548 H           1 B65       0.0470
     35 H10        22.5672   54.2615   40.4345 H           1 B65       0.0424
     36 H11        21.6654   54.7936   41.8274 H           1 B65       0.0424
     37 H12        21.3780   57.0322   40.1941 H           1 B65       0.0288
     38 H13        22.9082   56.4059   39.6056 H           1 B65       0.0288
     39 H14        22.9880   56.4390   42.5263 H           1 B65       0.0298
     40 H15        22.2921   57.9553   42.0199 H           1 B65       0.0298
     41 H16        24.9650   56.9633   40.9448 H           1 B65       0.0695
@<TRIPOS>BOND
     1     1     2  ar
     2     1     6  ar
     3     2     3  ar
     4     3     4  ar
     5     4     5  ar
     6     5     6  ar
     7     6     7   1
     8     7     8   1
     9     8     9  ar
    10     8    10  ar
    11     9    13  ar
    12    10    11  ar
    13    11    12  ar
    14    12    13  ar
    15    13    14   1
    16    14    15   1
    17    15    16   1
    18    16    17   1
    19    17    18   1
    20    17    22   1
    21    18    19  ar
    22    18    20  ar
    23    18    21  ar
    24    22    23  ar
    25    22    24  ar
    26    22    25  ar
    27     1    26   1
    28     2    27   1
    29     3    28   1
    30     4    29   1
    31     5    30   1
    32     9    31   1
    33    10    32   1
    34    11    33   1
    35    12    34   1
    36    14    35   1
    37    14    36   1
    38    15    37   1
    39    15    38   1
    40    16    39   1
    41    16    40   1
    42    17    41   1
@<TRIPOS>SUBSTRUCTURE
     1  B65      1

