@<TRIPOS>MOLECULE
2zcq_ligand_021
    41    42
SMALL
GAST_HUCK
****
This file was generated by PARSER (from files_GN.cpp)

@<TRIPOS>ATOM
      1 CAL        25.6614   44.5181   45.1916 C.ar        1 B65      -0.0285
      2 CAH        25.8083   45.0934   46.4675 C.ar        1 B65      -0.0697
      3 CAG        25.4858   46.4480   46.6706 C.ar        1 B65      -0.0723
      4 CAI        24.9928   47.2206   45.6028 C.ar        1 B65      -0.0697
      5 CAM        24.8364   46.6427   44.3293 C.ar        1 B65      -0.0285
      6 CAU        25.1914   45.2918   44.1097 C.ar        1 B65       0.1159
      7 OAS        25.0764   44.7109   42.8720 O.3         1 B65      -0.2597
      8 CAV        26.0015   45.1909   41.9822 C.ar        1 B65       0.1094
      9 CAO        25.5770   46.0949   40.9891 C.ar        1 B65      -0.0276
     10 CAN        27.3538   44.7882   42.0173 C.ar        1 B65      -0.0354
     11 CAJ        28.2753   45.3269   41.1023 C.ar        1 B65      -0.0762
     12 CAK        27.8502   46.2592   40.1393 C.ar        1 B65      -0.0708
     13 CAT        26.4954   46.6561   40.0703 C.ar        1 B65      -0.0509
     14 CAQ        26.0254   47.6442   39.0595 C.3         1 B65      -0.0214
     15 CAP        25.4768   48.9702   39.6859 C.3         1 B65      -0.0405
     16 CAR        24.0695   49.4069   39.1706 C.3         1 B65      -0.0165
     17 CAW        24.0047   50.4198   37.9827 C.3         1 B65       0.1121
     18 PAX        24.7973   49.9574   36.5824 P.3         1 B65       0.0795
     19 OAB        24.5678   50.8921   35.5108 O.co2       1 B65      -0.5610
     20 OAC        26.2205   49.8105   36.7466 O.co2       1 B65      -0.5610
     21 OAA        24.2573   48.7072   36.1195 O.co2       1 B65      -0.5610
     22 SAY        24.4605   52.0989   38.5022 S.o2        1 B65      -0.1731
     23 OAF        23.7234   52.4529   39.9826 O.co2       1 B65      -0.4830
     24 OAE        23.8925   53.1961   37.3511 O.co2       1 B65      -0.4830
     25 OAD        26.1333   52.2840   38.6720 O.co2       1 B65      -0.4830
     26 H1         25.9003   43.5340   45.0482 H           1 B65       0.0552
     27 H2         26.1551   44.5273   47.2449 H           1 B65       0.0590
     28 H3         25.5953   46.8642   47.5974 H           1 B65       0.0528
     29 H4         24.7465   48.2019   45.7544 H           1 B65       0.0590
     30 H5         24.4726   47.2095   43.5599 H           1 B65       0.0552
     31 H6         24.5905   46.3683   40.9594 H           1 B65       0.0488
     32 H7         27.6688   44.1094   42.7135 H           1 B65       0.0496
     33 H8         29.2573   45.0450   41.1398 H           1 B65       0.0573
     34 H9         28.5382   46.6516   39.4934 H           1 B65       0.0470
     35 H10        25.2592   47.1479   38.4590 H           1 B65       0.0424
     36 H11        26.8331   47.9000   38.3679 H           1 B65       0.0424
     37 H12        26.1941   49.7759   39.5110 H           1 B65       0.0288
     38 H13        25.4136   48.8616   40.7734 H           1 B65       0.0288
     39 H14        23.5285   49.8434   40.0139 H           1 B65       0.0298
     40 H15        23.4904   48.5213   38.9020 H           1 B65       0.0298
     41 H16        22.9489   50.4920   37.7115 H           1 B65       0.0695
@<TRIPOS>BOND
     1     1     2  ar
     2     1     6  ar
     3     2     3  ar
     4     3     4  ar
     5     4     5  ar
     6     5     6  ar
     7     6     7   1
     8     7     8   1
     9     8     9  ar
    10     8    10  ar
    11     9    13  ar
    12    10    11  ar
    13    11    12  ar
    14    12    13  ar
    15    13    14   1
    16    14    15   1
    17    15    16   1
    18    16    17   1
    19    17    18   1
    20    17    22   1
    21    18    19  ar
    22    18    20  ar
    23    18    21  ar
    24    22    23  ar
    25    22    24  ar
    26    22    25  ar
    27     1    26   1
    28     2    27   1
    29     3    28   1
    30     4    29   1
    31     5    30   1
    32     9    31   1
    33    10    32   1
    34    11    33   1
    35    12    34   1
    36    14    35   1
    37    14    36   1
    38    15    37   1
    39    15    38   1
    40    16    39   1
    41    16    40   1
    42    17    41   1
@<TRIPOS>SUBSTRUCTURE
     1  B65      1

