@<TRIPOS>MOLECULE
2zcq_ligand_034
    41    42
SMALL
GAST_HUCK
****
This file was generated by PARSER (from files_GN.cpp)

@<TRIPOS>ATOM
      1 CAL        26.1513   49.8177   35.6427 C.ar        1 B65      -0.0285
      2 CAH        27.2466   49.9378   34.7620 C.ar        1 B65      -0.0697
      3 CAG        27.7786   48.7950   34.1340 C.ar        1 B65      -0.0723
      4 CAI        27.2037   47.5321   34.3767 C.ar        1 B65      -0.0697
      5 CAM        26.1122   47.4118   35.2626 C.ar        1 B65      -0.0285
      6 CAU        25.5976   48.5485   35.9279 C.ar        1 B65       0.1159
      7 OAS        24.5641   48.4364   36.8286 O.3         1 B65      -0.2597
      8 CAV        25.0208   47.9575   38.0309 C.ar        1 B65       0.1094
      9 CAO        26.1431   48.5005   38.7004 C.ar        1 B65      -0.0276
     10 CAN        24.3185   46.8919   38.6306 C.ar        1 B65      -0.0354
     11 CAJ        24.7722   46.3351   39.8367 C.ar        1 B65      -0.0762
     12 CAK        25.9276   46.8366   40.4621 C.ar        1 B65      -0.0708
     13 CAT        26.6191   47.9461   39.9146 C.ar        1 B65      -0.0509
     14 CAQ        27.8177   48.5194   40.5912 C.3         1 B65      -0.0214
     15 CAP        27.4819   49.7717   41.4479 C.3         1 B65      -0.0405
     16 CAR        26.5811   49.4654   42.6895 C.3         1 B65      -0.0165
     17 CAW        25.5958   50.5822   43.1628 C.3         1 B65       0.1121
     18 PAX        24.5631   51.1564   41.9664 P.3         1 B65       0.0795
     19 OAB        23.2097   51.2063   42.4628 O.co2       1 B65      -0.5610
     20 OAC        24.9055   52.4641   41.4549 O.co2       1 B65      -0.5610
     21 OAA        24.4809   50.2687   40.8322 O.co2       1 B65      -0.5610
     22 SAY        26.4354   51.9230   44.0557 S.o2        1 B65      -0.1731
     23 OAF        25.3368   53.1670   44.3748 O.co2       1 B65      -0.4830
     24 OAE        27.7039   52.5579   43.1354 O.co2       1 B65      -0.4830
     25 OAD        27.0365   51.3391   45.5260 O.co2       1 B65      -0.4830
     26 H1         25.7867   50.6539   36.1036 H           1 B65       0.0552
     27 H2         27.6594   50.8556   34.5768 H           1 B65       0.0590
     28 H3         28.5724   48.8823   33.4906 H           1 B65       0.0528
     29 H4         27.5823   46.7022   33.9160 H           1 B65       0.0590
     30 H5         25.7163   46.4873   35.4487 H           1 B65       0.0552
     31 H6         26.6341   49.2912   38.2764 H           1 B65       0.0488
     32 H7         23.4901   46.5051   38.1793 H           1 B65       0.0496
     33 H8         24.2639   45.5561   40.2582 H           1 B65       0.0573
     34 H9         26.2408   46.4103   41.3372 H           1 B65       0.0470
     35 H10        28.5516   48.7990   39.8294 H           1 B65       0.0424
     36 H11        28.2934   47.7702   41.2323 H           1 B65       0.0424
     37 H12        27.0138   50.5197   40.8076 H           1 B65       0.0288
     38 H13        28.4228   50.1983   41.8056 H           1 B65       0.0288
     39 H14        27.2366   49.1962   43.5246 H           1 B65       0.0298
     40 H15        25.9830   48.5680   42.4982 H           1 B65       0.0298
     41 H16        24.9525   50.1084   43.9128 H           1 B65       0.0695
@<TRIPOS>BOND
     1     1     2  ar
     2     1     6  ar
     3     2     3  ar
     4     3     4  ar
     5     4     5  ar
     6     5     6  ar
     7     6     7   1
     8     7     8   1
     9     8     9  ar
    10     8    10  ar
    11     9    13  ar
    12    10    11  ar
    13    11    12  ar
    14    12    13  ar
    15    13    14   1
    16    14    15   1
    17    15    16   1
    18    16    17   1
    19    17    18   1
    20    17    22   1
    21    18    19  ar
    22    18    20  ar
    23    18    21  ar
    24    22    23  ar
    25    22    24  ar
    26    22    25  ar
    27     1    26   1
    28     2    27   1
    29     3    28   1
    30     4    29   1
    31     5    30   1
    32     9    31   1
    33    10    32   1
    34    11    33   1
    35    12    34   1
    36    14    35   1
    37    14    36   1
    38    15    37   1
    39    15    38   1
    40    16    39   1
    41    16    40   1
    42    17    41   1
@<TRIPOS>SUBSTRUCTURE
     1  B65      1

