@<TRIPOS>MOLECULE
2zcq_ligand_058
    41    42
SMALL
GAST_HUCK
****
This file was generated by PARSER (from files_GN.cpp)

@<TRIPOS>ATOM
      1 CAL        17.0422   51.2424   40.4659 C.ar        1 B65      -0.0285
      2 CAH        16.0194   51.0850   41.4233 C.ar        1 B65      -0.0697
      3 CAG        14.7143   51.5274   41.1329 C.ar        1 B65      -0.0723
      4 CAI        14.4242   52.1016   39.8844 C.ar        1 B65      -0.0697
      5 CAM        15.4422   52.2292   38.9179 C.ar        1 B65      -0.0285
      6 CAU        16.7628   51.8314   39.2116 C.ar        1 B65       0.1159
      7 OAS        17.7289   51.9226   38.2384 O.3         1 B65      -0.2597
      8 CAV        18.4198   53.1075   38.2639 C.ar        1 B65       0.1094
      9 CAO        19.8132   53.0794   38.4846 C.ar        1 B65      -0.0276
     10 CAN        17.7998   54.3435   37.9703 C.ar        1 B65      -0.0354
     11 CAJ        18.5538   55.5277   37.9513 C.ar        1 B65      -0.0762
     12 CAK        19.9381   55.4920   38.2024 C.ar        1 B65      -0.0708
     13 CAT        20.5863   54.2672   38.4830 C.ar        1 B65      -0.0509
     14 CAQ        22.0523   54.2227   38.7614 C.3         1 B65      -0.0214
     15 CAP        22.4164   53.8630   40.2385 C.3         1 B65      -0.0405
     16 CAR        23.5603   54.7119   40.8878 C.3         1 B65      -0.0165
     17 CAW        23.0929   55.9658   41.6984 C.3         1 B65       0.1121
     18 PAX        22.4934   57.2140   40.7600 P.3         1 B65       0.0795
     19 OAB        23.4091   57.6089   39.7159 O.co2       1 B65      -0.5610
     20 OAC        21.2277   56.8376   40.1957 O.co2       1 B65      -0.5610
     21 OAA        22.1623   58.3822   41.5425 O.co2       1 B65      -0.5610
     22 SAY        24.4155   56.5698   42.7874 S.o2        1 B65      -0.1731
     23 OAF        25.7346   57.0843   41.8619 O.co2       1 B65      -0.4830
     24 OAE        24.8994   55.3261   43.8301 O.co2       1 B65      -0.4830
     25 OAD        23.8430   57.8631   43.7136 O.co2       1 B65      -0.4830
     26 H1         17.9870   50.9208   40.6818 H           1 B65       0.0552
     27 H2         16.2220   50.6505   42.3264 H           1 B65       0.0590
     28 H3         13.9720   51.4239   41.8291 H           1 B65       0.0528
     29 H4         13.4741   52.4103   39.6685 H           1 B65       0.0590
     30 H5         15.2128   52.6157   38.0006 H           1 B65       0.0552
     31 H6         20.2673   52.1748   38.6344 H           1 B65       0.0488
     32 H7         16.7998   54.3871   37.7612 H           1 B65       0.0496
     33 H8         18.1008   56.4212   37.7502 H           1 B65       0.0573
     34 H9         20.4672   56.3671   38.1732 H           1 B65       0.0470
     35 H10        22.5036   55.1823   38.4980 H           1 B65       0.0424
     36 H11        22.5100   53.4811   38.1016 H           1 B65       0.0424
     37 H12        22.7443   52.8173   40.2517 H           1 B65       0.0288
     38 H13        21.5322   53.9211   40.8772 H           1 B65       0.0288
     39 H14        24.2926   55.0068   40.1300 H           1 B65       0.0298
     40 H15        24.0858   54.0479   41.5833 H           1 B65       0.0298
     41 H16        22.2990   55.6349   42.3709 H           1 B65       0.0695
@<TRIPOS>BOND
     1     1     2  ar
     2     1     6  ar
     3     2     3  ar
     4     3     4  ar
     5     4     5  ar
     6     5     6  ar
     7     6     7   1
     8     7     8   1
     9     8     9  ar
    10     8    10  ar
    11     9    13  ar
    12    10    11  ar
    13    11    12  ar
    14    12    13  ar
    15    13    14   1
    16    14    15   1
    17    15    16   1
    18    16    17   1
    19    17    18   1
    20    17    22   1
    21    18    19  ar
    22    18    20  ar
    23    18    21  ar
    24    22    23  ar
    25    22    24  ar
    26    22    25  ar
    27     1    26   1
    28     2    27   1
    29     3    28   1
    30     4    29   1
    31     5    30   1
    32     9    31   1
    33    10    32   1
    34    11    33   1
    35    12    34   1
    36    14    35   1
    37    14    36   1
    38    15    37   1
    39    15    38   1
    40    16    39   1
    41    16    40   1
    42    17    41   1
@<TRIPOS>SUBSTRUCTURE
     1  B65      1

