@<TRIPOS>MOLECULE
2zcr_ligand_040
    52    53
SMALL
GAST_HUCK
****
This file was generated by PARSER (from files_GN.cpp)

@<TRIPOS>ATOM
      1 CAA        25.2542   57.7524   41.4373 C.3         1 B69      -0.0651
      2 CAP        23.7811   57.3552   41.6992 C.3         1 B69      -0.0541
      3 CAQ        23.2506   56.2587   40.7213 C.3         1 B69      -0.0435
      4 CAS        23.1601   54.8027   41.2807 C.3         1 B69      -0.0191
      5 CAV        23.6438   53.7459   40.3460 C.ar        1 B69      -0.0429
      6 CAI        24.6569   52.8367   40.7352 C.ar        1 B69      -0.0600
      7 CAM        25.0951   51.8287   39.8600 C.ar        1 B69      -0.0616
      8 CAH        23.0742   53.6076   39.0577 C.ar        1 B69      -0.0600
      9 CAL        23.5315   52.6207   38.1673 C.ar        1 B69      -0.0616
     10 CAX        24.5471   51.7278   38.5654 C.ar        1 B69      -0.0283
     11 CAY        24.9871   50.7205   37.6916 C.ar        1 B69      -0.0283
     12 CAO        24.4733   49.4153   37.8223 C.ar        1 B69      -0.0616
     13 CAK        24.9120   48.3998   36.9574 C.ar        1 B69      -0.0600
     14 CAN        25.9407   51.0011   36.6897 C.ar        1 B69      -0.0616
     15 CAJ        26.4085   49.9698   35.8560 C.ar        1 B69      -0.0600
     16 CAW        25.9203   48.6493   35.9962 C.ar        1 B69      -0.0429
     17 CAT        26.4837   47.5331   35.1876 C.3         1 B69      -0.0190
     18 CAR        27.6000   46.7150   35.9069 C.3         1 B69      -0.0402
     19 CAU        27.2029   46.1757   37.3129 C.3         1 B69      -0.0165
     20 CAZ        28.1887   45.1793   38.0068 C.3         1 B69       0.1121
     21 PBA        27.4940   44.4676   39.3559 P.3         1 B69       0.0795
     22 OAC        27.1970   45.4310   40.3852 O.co2       1 B69      -0.5610
     23 OAD        26.2534   43.8203   39.0136 O.co2       1 B69      -0.5610
     24 OAB        28.3251   43.4376   39.9245 O.co2       1 B69      -0.5610
     25 SBB        29.7568   45.9852   38.4513 S.o2        1 B69      -0.1731
     26 OAG        30.6631   46.2522   37.0488 O.co2       1 B69      -0.4830
     27 OAF        30.6748   45.0219   39.4949 O.co2       1 B69      -0.4830
     28 OAE        29.4406   47.4636   39.2083 O.co2       1 B69      -0.4830
     29 H1         25.5914   58.4791   42.1800 H           1 B69       0.0230
     30 H2         25.3447   58.2065   40.4468 H           1 B69       0.0230
     31 H3         25.9004   56.8736   41.4857 H           1 B69       0.0230
     32 H4         23.1765   58.2593   41.5868 H           1 B69       0.0264
     33 H5         23.6724   57.0330   42.7368 H           1 B69       0.0264
     34 H6         23.8767   56.2641   39.8269 H           1 B69       0.0287
     35 H7         22.2458   56.5533   40.4014 H           1 B69       0.0287
     36 H8         22.1164   54.5738   41.5123 H           1 B69       0.0427
     37 H9         23.7046   54.7450   42.2237 H           1 B69       0.0427
     38 H10        25.0781   52.8918   41.6649 H           1 B69       0.0558
     39 H11        25.8169   51.1712   40.1692 H           1 B69       0.0600
     40 H12        22.3227   54.2308   38.7534 H           1 B69       0.0558
     41 H13        23.1114   52.5461   37.2361 H           1 B69       0.0600
     42 H14        23.7844   49.1971   38.5496 H           1 B69       0.0600
     43 H15        24.5123   47.4649   37.0640 H           1 B69       0.0558
     44 H16        26.3184   51.9466   36.5785 H           1 B69       0.0600
     45 H17        27.1113   50.1888   35.1474 H           1 B69       0.0558
     46 H18        26.8965   47.9318   34.2566 H           1 B69       0.0427
     47 H19        25.6761   46.8581   34.8976 H           1 B69       0.0427
     48 H20        28.4876   47.3453   35.9939 H           1 B69       0.0288
     49 H21        27.8577   45.8656   35.2673 H           1 B69       0.0288
     50 H22        26.2350   45.6796   37.1934 H           1 B69       0.0298
     51 H23        27.0567   47.0301   37.9779 H           1 B69       0.0298
     52 H24        28.4215   44.3719   37.3098 H           1 B69       0.0695
@<TRIPOS>BOND
     1     1     2   1
     2     2     3   1
     3     3     4   1
     4     4     5   1
     5     5     6  ar
     6     5     8  ar
     7     6     7  ar
     8     7    10  ar
     9     8     9  ar
    10     9    10  ar
    11    10    11   1
    12    11    12  ar
    13    11    14  ar
    14    12    13  ar
    15    13    16  ar
    16    14    15  ar
    17    15    16  ar
    18    16    17   1
    19    17    18   1
    20    18    19   1
    21    19    20   1
    22    20    21   1
    23    20    25   1
    24    21    22  ar
    25    21    23  ar
    26    21    24  ar
    27    25    26  ar
    28    25    27  ar
    29    25    28  ar
    30     1    29   1
    31     1    30   1
    32     1    31   1
    33     2    32   1
    34     2    33   1
    35     3    34   1
    36     3    35   1
    37     4    36   1
    38     4    37   1
    39     6    38   1
    40     7    39   1
    41     8    40   1
    42     9    41   1
    43    12    42   1
    44    13    43   1
    45    14    44   1
    46    15    45   1
    47    17    46   1
    48    17    47   1
    49    18    48   1
    50    18    49   1
    51    19    50   1
    52    19    51   1
    53    20    52   1
@<TRIPOS>SUBSTRUCTURE
     1  B69      1

