@<TRIPOS>MOLECULE
2zcr_ligand_091
    52    53
SMALL
GAST_HUCK
****
This file was generated by PARSER (from files_GN.cpp)

@<TRIPOS>ATOM
      1 CAA        15.5996   53.9408   36.5763 C.3         1 B69      -0.0651
      2 CAP        16.3273   52.6143   36.8888 C.3         1 B69      -0.0541
      3 CAQ        17.5948   52.3532   36.0304 C.3         1 B69      -0.0435
      4 CAS        18.8217   53.2556   36.3821 C.3         1 B69      -0.0191
      5 CAV        20.1056   52.4996   36.4089 C.ar        1 B69      -0.0429
      6 CAI        21.0847   52.6578   35.4019 C.ar        1 B69      -0.0600
      7 CAM        22.2716   51.9009   35.4303 C.ar        1 B69      -0.0616
      8 CAH        20.3523   51.5728   37.4489 C.ar        1 B69      -0.0600
      9 CAL        21.5337   50.8092   37.4723 C.ar        1 B69      -0.0616
     10 CAX        22.5129   50.9722   36.4676 C.ar        1 B69      -0.0283
     11 CAY        23.7154   50.2214   36.4923 C.ar        1 B69      -0.0283
     12 CAO        24.9660   50.8725   36.6006 C.ar        1 B69      -0.0616
     13 CAK        26.1639   50.1347   36.5761 C.ar        1 B69      -0.0600
     14 CAN        23.6883   48.8135   36.3845 C.ar        1 B69      -0.0616
     15 CAJ        24.8877   48.0808   36.3368 C.ar        1 B69      -0.0600
     16 CAW        26.1419   48.7311   36.4174 C.ar        1 B69      -0.0429
     17 CAT        27.4091   47.9545   36.3289 C.3         1 B69      -0.0190
     18 CAR        28.0929   47.7645   37.7125 C.3         1 B69      -0.0402
     19 CAU        29.2681   46.7408   37.7284 C.3         1 B69      -0.0165
     20 CAZ        28.9850   45.2619   37.2970 C.3         1 B69       0.1121
     21 PBA        27.7493   44.4977   38.1305 P.3         1 B69       0.0795
     22 OAC        27.9393   44.5648   39.5566 O.co2       1 B69      -0.5610
     23 OAD        26.4649   45.0831   37.8414 O.co2       1 B69      -0.5610
     24 OAB        27.6221   43.1100   37.7658 O.co2       1 B69      -0.5610
     25 SBB        30.5106   44.2757   37.3858 S.o2        1 B69      -0.1731
     26 OAG        31.8544   45.2299   37.0090 O.co2       1 B69      -0.4830
     27 OAF        30.4196   43.0135   36.2656 O.co2       1 B69      -0.4830
     28 OAE        30.7274   43.6320   38.9350 O.co2       1 B69      -0.4830
     29 H1         14.7636   54.0692   37.2673 H           1 B69       0.0230
     30 H2         15.2068   53.9263   35.5575 H           1 B69       0.0230
     31 H3         16.2739   54.7923   36.6868 H           1 B69       0.0230
     32 H4         15.6223   51.7956   36.7212 H           1 B69       0.0264
     33 H5         16.5955   52.5976   37.9490 H           1 B69       0.0264
     34 H6         17.3472   52.4747   34.9717 H           1 B69       0.0287
     35 H7         17.8474   51.2980   36.1656 H           1 B69       0.0287
     36 H8         18.6942   53.7236   37.3618 H           1 B69       0.0427
     37 H9         18.8692   54.0752   35.6595 H           1 B69       0.0427
     38 H10        20.9368   53.3130   34.6309 H           1 B69       0.0558
     39 H11        22.9493   52.0144   34.6729 H           1 B69       0.0600
     40 H12        19.6649   51.4424   38.1958 H           1 B69       0.0558
     41 H13        21.6802   50.1448   38.2363 H           1 B69       0.0600
     42 H14        25.0148   51.8893   36.7019 H           1 B69       0.0600
     43 H15        27.0540   50.6315   36.6570 H           1 B69       0.0558
     44 H16        22.7985   48.3133   36.3065 H           1 B69       0.0600
     45 H17        24.8387   47.0647   36.2358 H           1 B69       0.0558
     46 H18        28.1026   48.4559   35.6466 H           1 B69       0.0427
     47 H19        27.1956   46.9812   35.8864 H           1 B69       0.0427
     48 H20        27.3511   47.4646   38.4553 H           1 B69       0.0288
     49 H21        28.4839   48.7342   38.0385 H           1 B69       0.0288
     50 H22        29.6832   46.7335   38.7421 H           1 B69       0.0298
     51 H23        30.0436   47.1426   37.0709 H           1 B69       0.0298
     52 H24        28.7094   45.2598   36.2408 H           1 B69       0.0695
@<TRIPOS>BOND
     1     1     2   1
     2     2     3   1
     3     3     4   1
     4     4     5   1
     5     5     6  ar
     6     5     8  ar
     7     6     7  ar
     8     7    10  ar
     9     8     9  ar
    10     9    10  ar
    11    10    11   1
    12    11    12  ar
    13    11    14  ar
    14    12    13  ar
    15    13    16  ar
    16    14    15  ar
    17    15    16  ar
    18    16    17   1
    19    17    18   1
    20    18    19   1
    21    19    20   1
    22    20    21   1
    23    20    25   1
    24    21    22  ar
    25    21    23  ar
    26    21    24  ar
    27    25    26  ar
    28    25    27  ar
    29    25    28  ar
    30     1    29   1
    31     1    30   1
    32     1    31   1
    33     2    32   1
    34     2    33   1
    35     3    34   1
    36     3    35   1
    37     4    36   1
    38     4    37   1
    39     6    38   1
    40     7    39   1
    41     8    40   1
    42     9    41   1
    43    12    42   1
    44    13    43   1
    45    14    44   1
    46    15    45   1
    47    17    46   1
    48    17    47   1
    49    18    48   1
    50    18    49   1
    51    19    50   1
    52    19    51   1
    53    20    52   1
@<TRIPOS>SUBSTRUCTURE
     1  B69      1

