@<TRIPOS>MOLECULE
2zcr_ligand_032
    52    53
SMALL
GAST_HUCK
****
This file was generated by PARSER (from files_GN.cpp)

@<TRIPOS>ATOM
      1 CAA        16.8634   56.3250   35.3543 C.3         1 B69      -0.0651
      2 CAP        17.7574   56.4032   36.6141 C.3         1 B69      -0.0541
      3 CAQ        18.6871   55.1640   36.8017 C.3         1 B69      -0.0435
      4 CAS        20.2013   55.5133   36.8507 C.3         1 B69      -0.0191
      5 CAV        21.0743   54.3062   36.8994 C.ar        1 B69      -0.0429
      6 CAI        21.2160   53.4774   35.7610 C.ar        1 B69      -0.0600
      7 CAM        22.0816   52.3677   35.7713 C.ar        1 B69      -0.0616
      8 CAH        21.8319   53.9890   38.0536 C.ar        1 B69      -0.0600
      9 CAL        22.7093   52.8900   38.0668 C.ar        1 B69      -0.0616
     10 CAX        22.8477   52.0732   36.9222 C.ar        1 B69      -0.0283
     11 CAY        23.8144   51.0337   36.8866 C.ar        1 B69      -0.0283
     12 CAO        25.1904   51.3556   36.8961 C.ar        1 B69      -0.0616
     13 CAK        26.1642   50.3509   36.7319 C.ar        1 B69      -0.0600
     14 CAN        23.4359   49.6757   36.7484 C.ar        1 B69      -0.0616
     15 CAJ        24.4104   48.6691   36.6064 C.ar        1 B69      -0.0600
     16 CAW        25.7897   48.9964   36.5776 C.ar        1 B69      -0.0429
     17 CAT        26.8251   47.9663   36.2620 C.3         1 B69      -0.0190
     18 CAR        27.6891   47.4551   37.4527 C.3         1 B69      -0.0402
     19 CAU        28.4739   48.5469   38.2444 C.3         1 B69      -0.0165
     20 CAZ        29.7852   48.1132   38.9911 C.3         1 B69       0.1121
     21 PBA        31.1184   47.9423   37.9987 P.3         1 B69       0.0795
     22 OAC        30.9657   46.9794   36.9339 O.co2       1 B69      -0.5610
     23 OAD        31.4108   49.2114   37.3723 O.co2       1 B69      -0.5610
     24 OAB        32.3073   47.5979   38.7394 O.co2       1 B69      -0.5610
     25 SBB        29.5555   46.6515   40.0449 S.o2        1 B69      -0.1731
     26 OAG        30.8719   46.4881   41.0968 O.co2       1 B69      -0.4830
     27 OAF        29.4395   45.2476   39.0981 O.co2       1 B69      -0.4830
     28 OAE        28.1427   46.8234   40.9695 O.co2       1 B69      -0.4830
     29 H1         16.2220   57.2105   35.2968 H           1 B69       0.0230
     30 H2         16.2252   55.4418   35.3986 H           1 B69       0.0230
     31 H3         17.4749   56.2797   34.4508 H           1 B69       0.0230
     32 H4         17.0981   56.4865   37.4831 H           1 B69       0.0264
     33 H5         18.3443   57.3240   36.5641 H           1 B69       0.0264
     34 H6         18.5172   54.4434   35.9945 H           1 B69       0.0287
     35 H7         18.4260   54.6652   37.7401 H           1 B69       0.0287
     36 H8         20.3763   56.1430   37.7257 H           1 B69       0.0427
     37 H9         20.4730   56.1009   35.9694 H           1 B69       0.0427
     38 H10        20.7119   53.6937   34.8974 H           1 B69       0.0558
     39 H11        22.1881   51.8081   34.9201 H           1 B69       0.0600
     40 H12        21.7565   54.5671   38.8907 H           1 B69       0.0558
     41 H13        23.2630   52.7029   38.9081 H           1 B69       0.0600
     42 H14        25.5038   52.3253   36.9773 H           1 B69       0.0600
     43 H15        27.1527   50.6199   36.6781 H           1 B69       0.0558
     44 H16        22.4431   49.4163   36.7354 H           1 B69       0.0600
     45 H17        24.1055   47.6984   36.4904 H           1 B69       0.0558
     46 H18        27.4872   48.3621   35.4897 H           1 B69       0.0427
     47 H19        26.3403   47.0903   35.8161 H           1 B69       0.0427
     48 H20        28.3988   46.7443   37.0327 H           1 B69       0.0288
     49 H21        27.0466   46.9057   38.1404 H           1 B69       0.0288
     50 H22        27.7847   48.9612   38.9872 H           1 B69       0.0298
     51 H23        28.7089   49.3747   37.5625 H           1 B69       0.0298
     52 H24        30.0262   48.9239   39.6708 H           1 B69       0.0695
@<TRIPOS>BOND
     1     1     2   1
     2     2     3   1
     3     3     4   1
     4     4     5   1
     5     5     6  ar
     6     5     8  ar
     7     6     7  ar
     8     7    10  ar
     9     8     9  ar
    10     9    10  ar
    11    10    11   1
    12    11    12  ar
    13    11    14  ar
    14    12    13  ar
    15    13    16  ar
    16    14    15  ar
    17    15    16  ar
    18    16    17   1
    19    17    18   1
    20    18    19   1
    21    19    20   1
    22    20    21   1
    23    20    25   1
    24    21    22  ar
    25    21    23  ar
    26    21    24  ar
    27    25    26  ar
    28    25    27  ar
    29    25    28  ar
    30     1    29   1
    31     1    30   1
    32     1    31   1
    33     2    32   1
    34     2    33   1
    35     3    34   1
    36     3    35   1
    37     4    36   1
    38     4    37   1
    39     6    38   1
    40     7    39   1
    41     8    40   1
    42     9    41   1
    43    12    42   1
    44    13    43   1
    45    14    44   1
    46    15    45   1
    47    17    46   1
    48    17    47   1
    49    18    48   1
    50    18    49   1
    51    19    50   1
    52    19    51   1
    53    20    52   1
@<TRIPOS>SUBSTRUCTURE
     1  B69      1

