@<TRIPOS>MOLECULE
2zcr_ligand_014
    52    53
SMALL
GAST_HUCK
****
This file was generated by PARSER (from files_GN.cpp)

@<TRIPOS>ATOM
      1 CAA         7.2766   59.6715   38.5886 C.3         1 B69      -0.0651
      2 CAP         8.6135   60.1050   37.9480 C.3         1 B69      -0.0541
      3 CAQ         9.7313   60.3889   38.9919 C.3         1 B69      -0.0435
      4 CAS        11.1448   60.6313   38.3707 C.3         1 B69      -0.0191
      5 CAV        12.0921   59.4756   38.4075 C.ar        1 B69      -0.0429
      6 CAI        11.6860   58.1864   38.0021 C.ar        1 B69      -0.0600
      7 CAM        12.5900   57.1092   37.9974 C.ar        1 B69      -0.0616
      8 CAH        13.4437   59.6508   38.7857 C.ar        1 B69      -0.0600
      9 CAL        14.3597   58.5800   38.7383 C.ar        1 B69      -0.0616
     10 CAX        13.9577   57.2774   38.3393 C.ar        1 B69      -0.0283
     11 CAY        14.8888   56.1819   38.2565 C.ar        1 B69      -0.0283
     12 CAO        14.7360   55.1705   37.2728 C.ar        1 B69      -0.0616
     13 CAK        15.6084   54.0713   37.1997 C.ar        1 B69      -0.0600
     14 CAN        15.9940   56.0569   39.1365 C.ar        1 B69      -0.0616
     15 CAJ        16.8948   54.9756   39.0415 C.ar        1 B69      -0.0600
     16 CAW        16.7150   53.9633   38.0707 C.ar        1 B69      -0.0429
     17 CAT        17.6836   52.8338   37.9350 C.3         1 B69      -0.0190
     18 CAR        18.3704   52.8075   36.5392 C.3         1 B69      -0.0402
     19 CAU        19.6313   51.9101   36.3862 C.3         1 B69      -0.0165
     20 CAZ        20.9731   52.2833   37.1057 C.3         1 B69       0.1121
     21 PBA        21.2694   53.9060   37.3856 P.3         1 B69       0.0795
     22 OAC        21.3035   54.7003   36.1799 O.co2       1 B69      -0.5610
     23 OAD        20.2831   54.4598   38.2754 O.co2       1 B69      -0.5610
     24 OAB        22.5127   54.0767   38.0852 O.co2       1 B69      -0.5610
     25 SBB        22.3480   51.5686   36.1526 S.o2        1 B69      -0.1731
     26 OAG        22.4335   49.9102   36.4699 O.co2       1 B69      -0.4830
     27 OAF        23.8347   52.2607   36.5623 O.co2       1 B69      -0.4830
     28 OAE        22.0807   51.8021   34.4969 O.co2       1 B69      -0.4830
     29 H1          6.5311   59.4993   37.8093 H           1 B69       0.0230
     30 H2          6.9039   60.4495   39.2596 H           1 B69       0.0230
     31 H3          7.4052   58.7467   39.1536 H           1 B69       0.0230
     32 H4          8.4367   61.0083   37.3595 H           1 B69       0.0264
     33 H5          8.9318   59.3187   37.2621 H           1 B69       0.0264
     34 H6          9.7785   59.5709   39.7138 H           1 B69       0.0287
     35 H7          9.4350   61.2856   39.5479 H           1 B69       0.0287
     36 H8         11.5916   61.4851   38.8943 H           1 B69       0.0427
     37 H9         11.0419   60.9452   37.3271 H           1 B69       0.0427
     38 H10        10.7245   58.0135   37.7100 H           1 B69       0.0558
     39 H11        12.2294   56.1889   37.7373 H           1 B69       0.0600
     40 H12        13.7854   60.5738   39.0726 H           1 B69       0.0558
     41 H13        15.3385   58.7746   38.9735 H           1 B69       0.0600
     42 H14        13.9871   55.2243   36.5792 H           1 B69       0.0600
     43 H15        15.4430   53.3601   36.4813 H           1 B69       0.0558
     44 H16        16.1572   56.7483   39.8729 H           1 B69       0.0600
     45 H17        17.6830   54.9321   39.6925 H           1 B69       0.0558
     46 H18        17.1418   51.8912   38.0864 H           1 B69       0.0427
     47 H19        18.4520   52.8946   38.7113 H           1 B69       0.0427
     48 H20        18.6296   53.8222   36.2256 H           1 B69       0.0288
     49 H21        17.6316   52.4460   35.8137 H           1 B69       0.0288
     50 H22        19.8149   51.8697   35.3092 H           1 B69       0.0298
     51 H23        19.3578   50.8995   36.6981 H           1 B69       0.0298
     52 H24        20.9839   51.8019   38.0831 H           1 B69       0.0695
@<TRIPOS>BOND
     1     1     2   1
     2     2     3   1
     3     3     4   1
     4     4     5   1
     5     5     6  ar
     6     5     8  ar
     7     6     7  ar
     8     7    10  ar
     9     8     9  ar
    10     9    10  ar
    11    10    11   1
    12    11    12  ar
    13    11    14  ar
    14    12    13  ar
    15    13    16  ar
    16    14    15  ar
    17    15    16  ar
    18    16    17   1
    19    17    18   1
    20    18    19   1
    21    19    20   1
    22    20    21   1
    23    20    25   1
    24    21    22  ar
    25    21    23  ar
    26    21    24  ar
    27    25    26  ar
    28    25    27  ar
    29    25    28  ar
    30     1    29   1
    31     1    30   1
    32     1    31   1
    33     2    32   1
    34     2    33   1
    35     3    34   1
    36     3    35   1
    37     4    36   1
    38     4    37   1
    39     6    38   1
    40     7    39   1
    41     8    40   1
    42     9    41   1
    43    12    42   1
    44    13    43   1
    45    14    44   1
    46    15    45   1
    47    17    46   1
    48    17    47   1
    49    18    48   1
    50    18    49   1
    51    19    50   1
    52    19    51   1
    53    20    52   1
@<TRIPOS>SUBSTRUCTURE
     1  B69      1

