@<TRIPOS>MOLECULE
2zcr_ligand_085
    52    53
SMALL
GAST_HUCK
****
This file was generated by PARSER (from files_GN.cpp)

@<TRIPOS>ATOM
      1 CAA        18.5176   52.9324   39.1099 C.3         1 B69      -0.0651
      2 CAP        19.1093   52.3285   37.8175 C.3         1 B69      -0.0541
      3 CAQ        19.5533   53.3708   36.7475 C.3         1 B69      -0.0435
      4 CAS        20.8810   54.1399   37.0178 C.3         1 B69      -0.0191
      5 CAV        22.0728   53.2686   37.2251 C.ar        1 B69      -0.0429
      6 CAI        22.8079   53.3230   38.4294 C.ar        1 B69      -0.0600
      7 CAM        23.8735   52.4366   38.6598 C.ar        1 B69      -0.0616
      8 CAH        22.4656   52.3342   36.2384 C.ar        1 B69      -0.0600
      9 CAL        23.5228   51.4373   36.4741 C.ar        1 B69      -0.0616
     10 CAX        24.2401   51.4715   37.6925 C.ar        1 B69      -0.0283
     11 CAY        25.2777   50.5358   37.9655 C.ar        1 B69      -0.0283
     12 CAO        26.2693   50.2303   37.0047 C.ar        1 B69      -0.0616
     13 CAK        27.3006   49.3191   37.2987 C.ar        1 B69      -0.0600
     14 CAN        25.3384   49.8854   39.2207 C.ar        1 B69      -0.0616
     15 CAJ        26.3821   48.9949   39.5229 C.ar        1 B69      -0.0600
     16 CAW        27.3791   48.6988   38.5668 C.ar        1 B69      -0.0429
     17 CAT        28.5301   47.8337   38.9405 C.3         1 B69      -0.0190
     18 CAR        28.1935   46.3307   39.1804 C.3         1 B69      -0.0402
     19 CAU        29.2218   45.5872   40.0864 C.3         1 B69      -0.0165
     20 CAZ        30.7089   45.5391   39.5982 C.3         1 B69       0.1121
     21 PBA        30.9543   44.6645   38.1902 P.3         1 B69       0.0795
     22 OAC        32.2004   43.9265   38.1132 O.co2       1 B69      -0.5610
     23 OAD        29.9156   43.6939   37.9352 O.co2       1 B69      -0.5610
     24 OAB        30.9406   45.5412   37.0439 O.co2       1 B69      -0.5610
     25 SBB        31.7780   44.9717   40.9524 S.o2        1 B69      -0.1731
     26 OAG        31.4466   43.3570   41.3288 O.co2       1 B69      -0.4830
     27 OAF        31.5169   45.9277   42.3241 O.co2       1 B69      -0.4830
     28 OAE        33.4019   45.1276   40.5121 O.co2       1 B69      -0.4830
     29 H1         18.2946   52.1341   39.8226 H           1 B69       0.0230
     30 H2         17.5912   53.4643   38.8866 H           1 B69       0.0230
     31 H3         19.2252   53.6237   39.5672 H           1 B69       0.0230
     32 H4         18.3447   51.6848   37.3753 H           1 B69       0.0264
     33 H5         19.9446   51.6787   38.0815 H           1 B69       0.0264
     34 H6         18.7519   54.1017   36.6168 H           1 B69       0.0287
     35 H7         19.6511   52.8498   35.7920 H           1 B69       0.0287
     36 H8         20.7249   54.8019   37.8743 H           1 B69       0.0427
     37 H9         21.0894   54.7838   36.1599 H           1 B69       0.0427
     38 H10        22.5718   54.0025   39.1557 H           1 B69       0.0558
     39 H11        24.3786   52.4999   39.5466 H           1 B69       0.0600
     40 H12        21.9678   52.2828   35.3453 H           1 B69       0.0558
     41 H13        23.7460   50.7423   35.7565 H           1 B69       0.0600
     42 H14        26.2666   50.6952   36.0914 H           1 B69       0.0600
     43 H15        28.0120   49.1354   36.5892 H           1 B69       0.0558
     44 H16        24.6300   50.0648   39.9379 H           1 B69       0.0600
     45 H17        26.4169   48.5775   40.4570 H           1 B69       0.0558
     46 H18        28.9661   48.2580   39.8463 H           1 B69       0.0427
     47 H19        29.2994   47.8726   38.1693 H           1 B69       0.0427
     48 H20        28.1127   45.8244   38.2166 H           1 B69       0.0288
     49 H21        27.2145   46.2333   39.6577 H           1 B69       0.0288
     50 H22        28.8633   44.5650   40.2505 H           1 B69       0.0298
     51 H23        29.1820   46.0895   41.0575 H           1 B69       0.0298
     52 H24        31.0421   46.5618   39.4139 H           1 B69       0.0695
@<TRIPOS>BOND
     1     1     2   1
     2     2     3   1
     3     3     4   1
     4     4     5   1
     5     5     6  ar
     6     5     8  ar
     7     6     7  ar
     8     7    10  ar
     9     8     9  ar
    10     9    10  ar
    11    10    11   1
    12    11    12  ar
    13    11    14  ar
    14    12    13  ar
    15    13    16  ar
    16    14    15  ar
    17    15    16  ar
    18    16    17   1
    19    17    18   1
    20    18    19   1
    21    19    20   1
    22    20    21   1
    23    20    25   1
    24    21    22  ar
    25    21    23  ar
    26    21    24  ar
    27    25    26  ar
    28    25    27  ar
    29    25    28  ar
    30     1    29   1
    31     1    30   1
    32     1    31   1
    33     2    32   1
    34     2    33   1
    35     3    34   1
    36     3    35   1
    37     4    36   1
    38     4    37   1
    39     6    38   1
    40     7    39   1
    41     8    40   1
    42     9    41   1
    43    12    42   1
    44    13    43   1
    45    14    44   1
    46    15    45   1
    47    17    46   1
    48    17    47   1
    49    18    48   1
    50    18    49   1
    51    19    50   1
    52    19    51   1
    53    20    52   1
@<TRIPOS>SUBSTRUCTURE
     1  B69      1

