@<TRIPOS>MOLECULE
2zcr_ligand_060
    52    53
SMALL
GAST_HUCK
****
This file was generated by PARSER (from files_GN.cpp)

@<TRIPOS>ATOM
      1 CAA        19.2997   56.7886   36.4679 C.3         1 B69      -0.0651
      2 CAP        19.3420   55.3986   35.7886 C.3         1 B69      -0.0541
      3 CAQ        18.6169   54.2670   36.5756 C.3         1 B69      -0.0435
      4 CAS        19.1810   53.9301   37.9882 C.3         1 B69      -0.0191
      5 CAV        20.4078   53.0879   37.9520 C.ar        1 B69      -0.0429
      6 CAI        20.3255   51.6937   37.7211 C.ar        1 B69      -0.0600
      7 CAM        21.4871   50.8980   37.6815 C.ar        1 B69      -0.0616
      8 CAH        21.6835   53.6636   38.1473 C.ar        1 B69      -0.0600
      9 CAL        22.8446   52.8720   38.0960 C.ar        1 B69      -0.0616
     10 CAX        22.7631   51.4795   37.8564 C.ar        1 B69      -0.0283
     11 CAY        23.9464   50.6934   37.7920 C.ar        1 B69      -0.0283
     12 CAO        24.1454   49.5829   38.6469 C.ar        1 B69      -0.0616
     13 CAK        25.3590   48.8664   38.6331 C.ar        1 B69      -0.0600
     14 CAN        24.9796   51.0348   36.8864 C.ar        1 B69      -0.0616
     15 CAJ        26.1856   50.3149   36.8605 C.ar        1 B69      -0.0600
     16 CAW        26.3982   49.2360   37.7489 C.ar        1 B69      -0.0429
     17 CAT        27.7356   48.5799   37.8159 C.3         1 B69      -0.0190
     18 CAR        27.8916   47.3221   36.9205 C.3         1 B69      -0.0402
     19 CAU        27.9456   45.9391   37.6403 C.3         1 B69      -0.0165
     20 CAZ        28.9216   45.6786   38.8502 C.3         1 B69       0.1121
     21 PBA        28.2949   45.9017   40.3881 P.3         1 B69       0.0795
     22 OAC        28.2611   47.2592   40.8600 O.co2       1 B69      -0.5610
     23 OAD        26.9659   45.3535   40.5093 O.co2       1 B69      -0.5610
     24 OAB        29.0806   45.1699   41.3514 O.co2       1 B69      -0.5610
     25 SBB        30.5386   46.4980   38.7142 S.o2        1 B69      -0.1731
     26 OAG        31.0529   46.4540   37.1073 O.co2       1 B69      -0.4830
     27 OAF        31.6776   45.7105   39.6807 O.co2       1 B69      -0.4830
     28 OAE        30.4351   48.1132   39.2145 O.co2       1 B69      -0.4830
     29 H1         19.7122   57.5360   35.7897 H           1 B69       0.0230
     30 H2         19.8930   56.7896   37.3835 H           1 B69       0.0230
     31 H3         18.2698   57.0616   36.7061 H           1 B69       0.0230
     32 H4         20.3848   55.1129   35.6086 H           1 B69       0.0264
     33 H5         18.8572   55.4904   34.8107 H           1 B69       0.0264
     34 H6         18.6397   53.3555   35.9661 H           1 B69       0.0287
     35 H7         17.5637   54.5506   36.6846 H           1 B69       0.0287
     36 H8         18.4042   53.4020   38.5522 H           1 B69       0.0427
     37 H9         19.3661   54.8581   38.5363 H           1 B69       0.0427
     38 H10        19.4152   51.2488   37.5777 H           1 B69       0.0558
     39 H11        21.3965   49.8962   37.5017 H           1 B69       0.0600
     40 H12        21.7742   54.6652   38.3218 H           1 B69       0.0558
     41 H13        23.7482   53.3235   38.2464 H           1 B69       0.0600
     42 H14        23.4206   49.3096   39.3111 H           1 B69       0.0600
     43 H15        25.4880   48.0932   39.2875 H           1 B69       0.0558
     44 H16        24.8657   51.8184   36.2383 H           1 B69       0.0600
     45 H17        26.9171   50.5964   36.2052 H           1 B69       0.0558
     46 H18        27.9832   48.3420   38.8514 H           1 B69       0.0427
     47 H19        28.4968   49.3041   37.4952 H           1 B69       0.0427
     48 H20        28.7922   47.4291   36.3111 H           1 B69       0.0288
     49 H21        27.0546   47.2915   36.2102 H           1 B69       0.0288
     50 H22        28.2332   45.2245   36.8603 H           1 B69       0.0298
     51 H23        26.9235   45.6648   37.9206 H           1 B69       0.0298
     52 H24        29.1547   44.6087   38.8097 H           1 B69       0.0695
@<TRIPOS>BOND
     1     1     2   1
     2     2     3   1
     3     3     4   1
     4     4     5   1
     5     5     6  ar
     6     5     8  ar
     7     6     7  ar
     8     7    10  ar
     9     8     9  ar
    10     9    10  ar
    11    10    11   1
    12    11    12  ar
    13    11    14  ar
    14    12    13  ar
    15    13    16  ar
    16    14    15  ar
    17    15    16  ar
    18    16    17   1
    19    17    18   1
    20    18    19   1
    21    19    20   1
    22    20    21   1
    23    20    25   1
    24    21    22  ar
    25    21    23  ar
    26    21    24  ar
    27    25    26  ar
    28    25    27  ar
    29    25    28  ar
    30     1    29   1
    31     1    30   1
    32     1    31   1
    33     2    32   1
    34     2    33   1
    35     3    34   1
    36     3    35   1
    37     4    36   1
    38     4    37   1
    39     6    38   1
    40     7    39   1
    41     8    40   1
    42     9    41   1
    43    12    42   1
    44    13    43   1
    45    14    44   1
    46    15    45   1
    47    17    46   1
    48    17    47   1
    49    18    48   1
    50    18    49   1
    51    19    50   1
    52    19    51   1
    53    20    52   1
@<TRIPOS>SUBSTRUCTURE
     1  B69      1

