@<TRIPOS>MOLECULE
2zcr_ligand_081
    52    53
SMALL
GAST_HUCK
****
This file was generated by PARSER (from files_GN.cpp)

@<TRIPOS>ATOM
      1 CAA        16.9976   56.2525   35.1446 C.3         1 B69      -0.0651
      2 CAP        17.8985   56.5683   36.3608 C.3         1 B69      -0.0541
      3 CAQ        18.8602   55.4165   36.7640 C.3         1 B69      -0.0435
      4 CAS        20.1673   55.3530   35.9223 C.3         1 B69      -0.0191
      5 CAV        21.0684   54.2353   36.3233 C.ar        1 B69      -0.0429
      6 CAI        21.6028   54.1772   37.6326 C.ar        1 B69      -0.0600
      7 CAM        22.4515   53.1266   38.0228 C.ar        1 B69      -0.0616
      8 CAH        21.4348   53.2227   35.4055 C.ar        1 B69      -0.0600
      9 CAL        22.3011   52.1800   35.7850 C.ar        1 B69      -0.0616
     10 CAX        22.8051   52.1194   37.1018 C.ar        1 B69      -0.0283
     11 CAY        23.6582   51.0702   37.4978 C.ar        1 B69      -0.0283
     12 CAO        25.0353   51.1232   37.2004 C.ar        1 B69      -0.0616
     13 CAK        25.8862   50.0858   37.6175 C.ar        1 B69      -0.0600
     14 CAN        23.1469   49.9672   38.2142 C.ar        1 B69      -0.0616
     15 CAJ        24.0004   48.9217   38.6139 C.ar        1 B69      -0.0600
     16 CAW        25.3823   48.9663   38.3194 C.ar        1 B69      -0.0429
     17 CAT        26.2801   47.8478   38.7164 C.3         1 B69      -0.0190
     18 CAR        26.0925   46.5657   37.8440 C.3         1 B69      -0.0402
     19 CAU        27.4131   45.8371   37.4338 C.3         1 B69      -0.0165
     20 CAZ        28.0693   46.1677   36.0492 C.3         1 B69       0.1121
     21 PBA        28.3337   47.7858   35.7242 P.3         1 B69       0.0795
     22 OAC        27.1246   48.4899   35.3848 O.co2       1 B69      -0.5610
     23 OAD        28.9823   48.4499   36.8245 O.co2       1 B69      -0.5610
     24 OAB        29.2263   47.9494   34.6057 O.co2       1 B69      -0.5610
     25 SBB        27.2204   45.3548   34.6612 S.o2        1 B69      -0.1731
     26 OAG        25.6085   45.8518   34.5574 O.co2       1 B69      -0.4830
     27 OAF        27.2702   43.6797   34.8825 O.co2       1 B69      -0.4830
     28 OAE        27.9927   45.7193   33.2016 O.co2       1 B69      -0.4830
     29 H1         16.3576   57.1104   34.9314 H           1 B69       0.0230
     30 H2         16.3589   55.3940   35.3597 H           1 B69       0.0230
     31 H3         17.5969   56.0368   34.2596 H           1 B69       0.0230
     32 H4         17.2436   56.7889   37.2092 H           1 B69       0.0264
     33 H5         18.4793   57.4707   36.1570 H           1 B69       0.0264
     34 H6         18.3338   54.4610   36.6972 H           1 B69       0.0287
     35 H7         19.1290   55.5681   37.8128 H           1 B69       0.0287
     36 H8         20.7161   56.2909   36.0387 H           1 B69       0.0427
     37 H9         19.8993   55.2658   34.8665 H           1 B69       0.0427
     38 H10        21.3742   54.9007   38.3178 H           1 B69       0.0558
     39 H11        22.8165   53.1103   38.9793 H           1 B69       0.0600
     40 H12        21.0832   53.2439   34.4457 H           1 B69       0.0558
     41 H13        22.5565   51.4661   35.0962 H           1 B69       0.0600
     42 H14        25.4302   51.9161   36.6865 H           1 B69       0.0600
     43 H15        26.8806   50.1507   37.3918 H           1 B69       0.0558
     44 H16        22.1507   49.9155   38.4412 H           1 B69       0.0600
     45 H17        23.6087   48.1276   39.1262 H           1 B69       0.0558
     46 H18        26.0968   47.6067   39.7666 H           1 B69       0.0427
     47 H19        27.3158   48.1807   38.6747 H           1 B69       0.0427
     48 H20        25.5238   46.7973   36.9429 H           1 B69       0.0288
     49 H21        25.4804   45.8663   38.4239 H           1 B69       0.0288
     50 H22        27.2129   44.7620   37.4464 H           1 B69       0.0298
     51 H23        28.1593   45.9993   38.2170 H           1 B69       0.0298
     52 H24        29.0589   45.7083   36.0751 H           1 B69       0.0695
@<TRIPOS>BOND
     1     1     2   1
     2     2     3   1
     3     3     4   1
     4     4     5   1
     5     5     6  ar
     6     5     8  ar
     7     6     7  ar
     8     7    10  ar
     9     8     9  ar
    10     9    10  ar
    11    10    11   1
    12    11    12  ar
    13    11    14  ar
    14    12    13  ar
    15    13    16  ar
    16    14    15  ar
    17    15    16  ar
    18    16    17   1
    19    17    18   1
    20    18    19   1
    21    19    20   1
    22    20    21   1
    23    20    25   1
    24    21    22  ar
    25    21    23  ar
    26    21    24  ar
    27    25    26  ar
    28    25    27  ar
    29    25    28  ar
    30     1    29   1
    31     1    30   1
    32     1    31   1
    33     2    32   1
    34     2    33   1
    35     3    34   1
    36     3    35   1
    37     4    36   1
    38     4    37   1
    39     6    38   1
    40     7    39   1
    41     8    40   1
    42     9    41   1
    43    12    42   1
    44    13    43   1
    45    14    44   1
    46    15    45   1
    47    17    46   1
    48    17    47   1
    49    18    48   1
    50    18    49   1
    51    19    50   1
    52    19    51   1
    53    20    52   1
@<TRIPOS>SUBSTRUCTURE
     1  B69      1

