@<TRIPOS>MOLECULE
2zcr_ligand_044
    52    53
SMALL
GAST_HUCK
****
This file was generated by PARSER (from files_GN.cpp)

@<TRIPOS>ATOM
      1 CAA        22.5042   46.8180   34.2563 C.3         1 B69      -0.0651
      2 CAP        21.7108   47.7276   33.2819 C.3         1 B69      -0.0541
      3 CAQ        21.8665   49.2523   33.5651 C.3         1 B69      -0.0435
      4 CAS        20.8965   49.8305   34.6588 C.3         1 B69      -0.0191
      5 CAV        21.5900   50.5847   35.7425 C.ar        1 B69      -0.0429
      6 CAI        22.2289   49.8929   36.8005 C.ar        1 B69      -0.0600
      7 CAM        22.8693   50.5916   37.8365 C.ar        1 B69      -0.0616
      8 CAH        21.5736   52.0031   35.7827 C.ar        1 B69      -0.0600
      9 CAL        22.1962   52.6992   36.8360 C.ar        1 B69      -0.0616
     10 CAX        22.8863   52.0153   37.8718 C.ar        1 B69      -0.0283
     11 CAY        23.5700   52.7239   38.9237 C.ar        1 B69      -0.0283
     12 CAO        23.4182   54.1269   39.1086 C.ar        1 B69      -0.0616
     13 CAK        24.0853   54.8062   40.1511 C.ar        1 B69      -0.0600
     14 CAN        24.4233   52.0323   39.8253 C.ar        1 B69      -0.0616
     15 CAJ        25.0577   52.7055   40.8794 C.ar        1 B69      -0.0600
     16 CAW        24.9228   54.1012   41.0474 C.ar        1 B69      -0.0429
     17 CAT        25.5950   54.7852   42.1943 C.3         1 B69      -0.0190
     18 CAR        26.6344   55.8905   41.7836 C.3         1 B69      -0.0402
     19 CAU        27.8657   56.0019   42.7422 C.3         1 B69      -0.0165
     20 CAZ        28.3135   57.4660   43.0885 C.3         1 B69       0.1121
     21 PBA        29.9548   57.5795   43.4144 P.3         1 B69       0.0795
     22 OAC        30.3046   58.7946   44.1108 O.co2       1 B69      -0.5610
     23 OAD        30.4248   56.4571   44.1914 O.co2       1 B69      -0.5610
     24 OAB        30.6999   57.5731   42.1779 O.co2       1 B69      -0.5610
     25 SBB        27.3576   58.1333   44.4887 S.o2        1 B69      -0.1731
     26 OAG        27.1151   59.7931   44.2634 O.co2       1 B69      -0.4830
     27 OAF        28.1706   57.8904   45.9547 O.co2       1 B69      -0.4830
     28 OAE        25.8545   57.3670   44.5990 O.co2       1 B69      -0.4830
     29 H1         22.3387   45.7710   33.9808 H           1 B69       0.0230
     30 H2         22.1698   46.9700   35.2850 H           1 B69       0.0230
     31 H3         23.5761   47.0400   34.1849 H           1 B69       0.0230
     32 H4         20.6445   47.4491   33.3182 H           1 B69       0.0264
     33 H5         22.0735   47.5309   32.2631 H           1 B69       0.0264
     34 H6         21.6428   49.7775   32.6293 H           1 B69       0.0287
     35 H7         22.9119   49.4771   33.8099 H           1 B69       0.0287
     36 H8         20.2901   49.0313   35.1208 H           1 B69       0.0427
     37 H9         20.1796   50.5091   34.1661 H           1 B69       0.0427
     38 H10        22.2219   48.8710   36.8223 H           1 B69       0.0558
     39 H11        23.3153   50.0436   38.5827 H           1 B69       0.0600
     40 H12        21.1218   52.5333   35.0337 H           1 B69       0.0558
     41 H13        22.1620   53.7232   36.8277 H           1 B69       0.0600
     42 H14        22.7885   54.6580   38.5028 H           1 B69       0.0600
     43 H15        23.9389   55.8132   40.2625 H           1 B69       0.0558
     44 H16        24.5910   51.0276   39.7190 H           1 B69       0.0600
     45 H17        25.6374   52.1632   41.5229 H           1 B69       0.0558
     46 H18        26.1021   54.0241   42.8041 H           1 B69       0.0427
     47 H19        24.8300   55.2468   42.8363 H           1 B69       0.0427
     48 H20        26.0973   56.8526   41.7081 H           1 B69       0.0288
     49 H21        27.0139   55.6708   40.7722 H           1 B69       0.0288
     50 H22        28.6837   55.4678   42.2546 H           1 B69       0.0298
     51 H23        27.6736   55.4839   43.6852 H           1 B69       0.0298
     52 H24        28.1264   58.1108   42.2237 H           1 B69       0.0695
@<TRIPOS>BOND
     1     1     2   1
     2     2     3   1
     3     3     4   1
     4     4     5   1
     5     5     6  ar
     6     5     8  ar
     7     6     7  ar
     8     7    10  ar
     9     8     9  ar
    10     9    10  ar
    11    10    11   1
    12    11    12  ar
    13    11    14  ar
    14    12    13  ar
    15    13    16  ar
    16    14    15  ar
    17    15    16  ar
    18    16    17   1
    19    17    18   1
    20    18    19   1
    21    19    20   1
    22    20    21   1
    23    20    25   1
    24    21    22  ar
    25    21    23  ar
    26    21    24  ar
    27    25    26  ar
    28    25    27  ar
    29    25    28  ar
    30     1    29   1
    31     1    30   1
    32     1    31   1
    33     2    32   1
    34     2    33   1
    35     3    34   1
    36     3    35   1
    37     4    36   1
    38     4    37   1
    39     6    38   1
    40     7    39   1
    41     8    40   1
    42     9    41   1
    43    12    42   1
    44    13    43   1
    45    14    44   1
    46    15    45   1
    47    17    46   1
    48    17    47   1
    49    18    48   1
    50    18    49   1
    51    19    50   1
    52    19    51   1
    53    20    52   1
@<TRIPOS>SUBSTRUCTURE
     1  B69      1

