@<TRIPOS>MOLECULE
2zcr_ligand_066
    52    53
SMALL
GAST_HUCK
****
This file was generated by PARSER (from files_GN.cpp)

@<TRIPOS>ATOM
      1 CAA        19.3073   56.7717   36.6317 C.3         1 B69      -0.0651
      2 CAP        20.3657   55.9661   35.8463 C.3         1 B69      -0.0541
      3 CAQ        19.7504   54.8062   35.0195 C.3         1 B69      -0.0435
      4 CAS        19.3962   53.5332   35.8458 C.3         1 B69      -0.0191
      5 CAV        20.5125   52.6138   36.2225 C.ar        1 B69      -0.0429
      6 CAI        21.7046   52.5027   35.4656 C.ar        1 B69      -0.0600
      7 CAM        22.7271   51.6174   35.8563 C.ar        1 B69      -0.0616
      8 CAH        20.3524   51.7602   37.3404 C.ar        1 B69      -0.0600
      9 CAL        21.3634   50.8658   37.7272 C.ar        1 B69      -0.0616
     10 CAX        22.5611   50.7995   36.9910 C.ar        1 B69      -0.0283
     11 CAY        23.5853   49.9168   37.3703 C.ar        1 B69      -0.0283
     12 CAO        23.7309   48.6792   36.7101 C.ar        1 B69      -0.0616
     13 CAK        24.7520   47.7939   37.0902 C.ar        1 B69      -0.0600
     14 CAN        24.4765   50.2702   38.4023 C.ar        1 B69      -0.0616
     15 CAJ        25.4894   49.3785   38.7876 C.ar        1 B69      -0.0600
     16 CAW        25.6351   48.1278   38.1402 C.ar        1 B69      -0.0429
     17 CAT        26.7015   47.1731   38.5431 C.3         1 B69      -0.0190
     18 CAR        27.9479   47.2092   37.6115 C.3         1 B69      -0.0402
     19 CAU        28.6346   48.6078   37.4490 C.3         1 B69      -0.0165
     20 CAZ        29.8943   48.9354   38.3165 C.3         1 B69       0.1121
     21 PBA        31.2641   48.0701   37.9083 P.3         1 B69       0.0795
     22 OAC        31.7696   47.2366   38.9663 O.co2       1 B69      -0.5610
     23 OAD        31.0181   47.2105   36.7757 O.co2       1 B69      -0.5610
     24 OAB        32.3366   48.9459   37.5090 O.co2       1 B69      -0.5610
     25 SBB        29.5970   48.8753   40.1086 S.o2        1 B69      -0.1731
     26 OAG        28.3238   49.9185   40.5004 O.co2       1 B69      -0.4830
     27 OAF        30.9743   49.3765   40.9505 O.co2       1 B69      -0.4830
     28 OAE        29.2224   47.3052   40.6108 O.co2       1 B69      -0.4830
     29 H1         19.7882   57.5715   37.1912 H           1 B69       0.0230
     30 H2         18.7723   56.1332   37.3332 H           1 B69       0.0230
     31 H3         18.5936   57.2150   35.9380 H           1 B69       0.0230
     32 H4         21.1091   55.5681   36.5395 H           1 B69       0.0264
     33 H5         20.8851   56.6479   35.1657 H           1 B69       0.0264
     34 H6         20.4386   54.5446   34.2202 H           1 B69       0.0287
     35 H7         18.8437   55.1661   34.5292 H           1 B69       0.0287
     36 H8         18.6636   52.9451   35.2899 H           1 B69       0.0427
     37 H9         18.8884   53.8711   36.7513 H           1 B69       0.0427
     38 H10        21.8387   53.0599   34.6219 H           1 B69       0.0558
     39 H11        23.5970   51.5693   35.3143 H           1 B69       0.0600
     40 H12        19.4920   51.7843   37.8891 H           1 B69       0.0558
     41 H13        21.2220   50.2683   38.5419 H           1 B69       0.0600
     42 H14        23.0972   48.4144   35.9519 H           1 B69       0.0600
     43 H15        24.8476   46.9027   36.5984 H           1 B69       0.0558
     44 H16        24.4017   51.1742   38.8743 H           1 B69       0.0600
     45 H17        26.1281   49.6563   39.5357 H           1 B69       0.0558
     46 H18        26.2908   46.1609   38.5427 H           1 B69       0.0427
     47 H19        27.0037   47.3731   39.5684 H           1 B69       0.0427
     48 H20        27.6354   46.8576   36.6267 H           1 B69       0.0288
     49 H21        28.6659   46.4796   37.9826 H           1 B69       0.0288
     50 H22        27.9019   49.3971   37.6305 H           1 B69       0.0298
     51 H23        28.9141   48.7202   36.3978 H           1 B69       0.0298
     52 H24        30.1418   49.9769   38.1052 H           1 B69       0.0695
@<TRIPOS>BOND
     1     1     2   1
     2     2     3   1
     3     3     4   1
     4     4     5   1
     5     5     6  ar
     6     5     8  ar
     7     6     7  ar
     8     7    10  ar
     9     8     9  ar
    10     9    10  ar
    11    10    11   1
    12    11    12  ar
    13    11    14  ar
    14    12    13  ar
    15    13    16  ar
    16    14    15  ar
    17    15    16  ar
    18    16    17   1
    19    17    18   1
    20    18    19   1
    21    19    20   1
    22    20    21   1
    23    20    25   1
    24    21    22  ar
    25    21    23  ar
    26    21    24  ar
    27    25    26  ar
    28    25    27  ar
    29    25    28  ar
    30     1    29   1
    31     1    30   1
    32     1    31   1
    33     2    32   1
    34     2    33   1
    35     3    34   1
    36     3    35   1
    37     4    36   1
    38     4    37   1
    39     6    38   1
    40     7    39   1
    41     8    40   1
    42     9    41   1
    43    12    42   1
    44    13    43   1
    45    14    44   1
    46    15    45   1
    47    17    46   1
    48    17    47   1
    49    18    48   1
    50    18    49   1
    51    19    50   1
    52    19    51   1
    53    20    52   1
@<TRIPOS>SUBSTRUCTURE
     1  B69      1

