@<TRIPOS>MOLECULE
2zcr_ligand_079
    52    53
SMALL
GAST_HUCK
****
This file was generated by PARSER (from files_GN.cpp)

@<TRIPOS>ATOM
      1 CAA        11.6506   61.9085   39.3721 C.3         1 B69      -0.0651
      2 CAP        10.2497   61.5103   39.9053 C.3         1 B69      -0.0541
      3 CAQ         9.0731   61.7577   38.9044 C.3         1 B69      -0.0435
      4 CAS         8.8219   60.7140   37.7656 C.3         1 B69      -0.0191
      5 CAV         9.9784   59.8495   37.4131 C.ar        1 B69      -0.0429
      6 CAI        10.1704   58.6115   38.0735 C.ar        1 B69      -0.0600
      7 CAM        11.3270   57.8486   37.8481 C.ar        1 B69      -0.0616
      8 CAH        10.9442   60.2765   36.4718 C.ar        1 B69      -0.0600
      9 CAL        12.0946   59.5091   36.2322 C.ar        1 B69      -0.0616
     10 CAX        12.3061   58.3084   36.9431 C.ar        1 B69      -0.0283
     11 CAY        13.4758   57.5573   36.7383 C.ar        1 B69      -0.0283
     12 CAO        13.4971   56.5645   35.7392 C.ar        1 B69      -0.0616
     13 CAK        14.6696   55.8316   35.5003 C.ar        1 B69      -0.0600
     14 CAN        14.6310   57.7913   37.5125 C.ar        1 B69      -0.0616
     15 CAJ        15.7998   57.0464   37.2778 C.ar        1 B69      -0.0600
     16 CAW        15.8378   56.0548   36.2686 C.ar        1 B69      -0.0429
     17 CAT        17.0534   55.2237   36.0454 C.3         1 B69      -0.0190
     18 CAR        16.7826   53.7029   36.2732 C.3         1 B69      -0.0402
     19 CAU        18.0209   52.9046   36.7912 C.3         1 B69      -0.0165
     20 CAZ        17.7435   51.5365   37.4998 C.3         1 B69       0.1121
     21 PBA        16.9053   50.4123   36.5939 P.3         1 B69       0.0795
     22 OAC        17.0538   49.0850   37.1463 O.co2       1 B69      -0.5610
     23 OAD        15.4902   50.7064   36.5669 O.co2       1 B69      -0.5610
     24 OAB        17.3989   50.3536   35.2402 O.co2       1 B69      -0.5610
     25 SBB        17.0328   51.7730   39.1675 S.o2        1 B69      -0.1731
     26 OAG        16.0894   50.4444   39.6311 O.co2       1 B69      -0.4830
     27 OAF        16.0698   53.1597   39.2569 O.co2       1 B69      -0.4830
     28 OAE        18.3047   51.9494   40.2701 O.co2       1 B69      -0.4830
     29 H1         12.3492   61.9931   40.2088 H           1 B69       0.0230
     30 H2         11.6087   62.8722   38.8609 H           1 B69       0.0230
     31 H3         12.0272   61.1535   38.6788 H           1 B69       0.0230
     32 H4         10.0595   62.1045   40.8022 H           1 B69       0.0264
     33 H5         10.2580   60.4615   40.2201 H           1 B69       0.0264
     34 H6          9.2006   62.7467   38.4553 H           1 B69       0.0287
     35 H7          8.1458   61.8127   39.4890 H           1 B69       0.0287
     36 H8          8.4911   61.2514   36.8712 H           1 B69       0.0427
     37 H9          7.9810   60.0725   38.0489 H           1 B69       0.0427
     38 H10         9.4842   58.2765   38.7533 H           1 B69       0.0558
     39 H11        11.4529   56.9674   38.3534 H           1 B69       0.0600
     40 H12        10.8206   61.1567   35.9627 H           1 B69       0.0558
     41 H13        12.7940   59.8438   35.5639 H           1 B69       0.0600
     42 H14        12.6612   56.3797   35.1795 H           1 B69       0.0600
     43 H15        14.6599   55.1184   34.7731 H           1 B69       0.0558
     44 H16        14.6326   58.5078   38.2466 H           1 B69       0.0600
     45 H17        16.6270   57.2277   37.8550 H           1 B69       0.0558
     46 H18        17.8519   55.5562   36.7117 H           1 B69       0.0427
     47 H19        17.4110   55.3810   35.0196 H           1 B69       0.0427
     48 H20        16.4574   53.2605   35.3185 H           1 B69       0.0288
     49 H21        15.9604   53.5720   36.9820 H           1 B69       0.0288
     50 H22        18.5734   53.5250   37.5057 H           1 B69       0.0298
     51 H23        18.6914   52.7341   35.9395 H           1 B69       0.0298
     52 H24        18.7310   51.0926   37.6641 H           1 B69       0.0695
@<TRIPOS>BOND
     1     1     2   1
     2     2     3   1
     3     3     4   1
     4     4     5   1
     5     5     6  ar
     6     5     8  ar
     7     6     7  ar
     8     7    10  ar
     9     8     9  ar
    10     9    10  ar
    11    10    11   1
    12    11    12  ar
    13    11    14  ar
    14    12    13  ar
    15    13    16  ar
    16    14    15  ar
    17    15    16  ar
    18    16    17   1
    19    17    18   1
    20    18    19   1
    21    19    20   1
    22    20    21   1
    23    20    25   1
    24    21    22  ar
    25    21    23  ar
    26    21    24  ar
    27    25    26  ar
    28    25    27  ar
    29    25    28  ar
    30     1    29   1
    31     1    30   1
    32     1    31   1
    33     2    32   1
    34     2    33   1
    35     3    34   1
    36     3    35   1
    37     4    36   1
    38     4    37   1
    39     6    38   1
    40     7    39   1
    41     8    40   1
    42     9    41   1
    43    12    42   1
    44    13    43   1
    45    14    44   1
    46    15    45   1
    47    17    46   1
    48    17    47   1
    49    18    48   1
    50    18    49   1
    51    19    50   1
    52    19    51   1
    53    20    52   1
@<TRIPOS>SUBSTRUCTURE
     1  B69      1

