@<TRIPOS>MOLECULE
2zcr_ligand_036
    52    53
SMALL
GAST_HUCK
****
This file was generated by PARSER (from files_GN.cpp)

@<TRIPOS>ATOM
      1 CAA        25.8637   48.8628   33.7180 C.3         1 B69      -0.0651
      2 CAP        24.7745   48.5715   34.7759 C.3         1 B69      -0.0541
      3 CAQ        23.4014   49.2161   34.4298 C.3         1 B69      -0.0435
      4 CAS        22.4057   49.2494   35.6242 C.3         1 B69      -0.0191
      5 CAV        22.7712   50.2653   36.6543 C.ar        1 B69      -0.0429
      6 CAI        23.6046   49.9389   37.7491 C.ar        1 B69      -0.0600
      7 CAM        23.9682   50.9190   38.6948 C.ar        1 B69      -0.0616
      8 CAH        22.3076   51.5957   36.5428 C.ar        1 B69      -0.0600
      9 CAL        22.6751   52.5712   37.4885 C.ar        1 B69      -0.0616
     10 CAX        23.5041   52.2593   38.5998 C.ar        1 B69      -0.0283
     11 CAY        23.8375   53.2623   39.5819 C.ar        1 B69      -0.0283
     12 CAO        23.0529   54.4352   39.7555 C.ar        1 B69      -0.0616
     13 CAK        23.4231   55.4433   40.6706 C.ar        1 B69      -0.0600
     14 CAN        24.9649   53.1194   40.4317 C.ar        1 B69      -0.0616
     15 CAJ        25.3357   54.1217   41.3504 C.ar        1 B69      -0.0600
     16 CAW        24.5902   55.3161   41.4607 C.ar        1 B69      -0.0429
     17 CAT        24.9962   56.3930   42.4083 C.3         1 B69      -0.0190
     18 CAR        25.6033   57.6501   41.7194 C.3         1 B69      -0.0402
     19 CAU        27.1214   57.6253   41.3517 C.3         1 B69      -0.0165
     20 CAZ        28.2269   57.8390   42.4471 C.3         1 B69       0.1121
     21 PBA        28.6504   56.4920   43.3413 P.3         1 B69       0.0795
     22 OAC        30.0116   56.5917   43.7987 O.co2       1 B69      -0.5610
     23 OAD        27.8413   56.2694   44.5136 O.co2       1 B69      -0.5610
     24 OAB        28.6133   55.3055   42.5250 O.co2       1 B69      -0.5610
     25 SBB        27.9184   59.2672   43.5249 S.o2        1 B69      -0.1731
     26 OAG        26.4830   59.0588   44.3895 O.co2       1 B69      -0.4830
     27 OAF        27.8162   60.6692   42.5852 O.co2       1 B69      -0.4830
     28 OAE        29.1926   59.4609   44.6273 O.co2       1 B69      -0.4830
     29 H1         26.7706   48.3005   33.9562 H           1 B69       0.0230
     30 H2         26.1100   49.9264   33.7125 H           1 B69       0.0230
     31 H3         25.5223   48.5713   32.7243 H           1 B69       0.0230
     32 H4         25.1362   48.9418   35.7367 H           1 B69       0.0264
     33 H5         24.6447   47.4894   34.8620 H           1 B69       0.0264
     34 H6         22.9455   48.6425   33.6187 H           1 B69       0.0287
     35 H7         23.5522   50.2337   34.0585 H           1 B69       0.0287
     36 H8         22.3490   48.2466   36.0564 H           1 B69       0.0427
     37 H9         21.4049   49.4857   35.2497 H           1 B69       0.0427
     38 H10        23.9534   48.9822   37.8669 H           1 B69       0.0558
     39 H11        24.5527   50.6220   39.4787 H           1 B69       0.0600
     40 H12        21.6963   51.8683   35.7663 H           1 B69       0.0558
     41 H13        22.3286   53.5211   37.3438 H           1 B69       0.0600
     42 H14        22.1869   54.5677   39.2255 H           1 B69       0.0600
     43 H15        22.8224   56.2699   40.7617 H           1 B69       0.0558
     44 H16        25.5515   52.2854   40.3884 H           1 B69       0.0600
     45 H17        26.1563   53.9692   41.9403 H           1 B69       0.0558
     46 H18        25.7036   56.0152   43.1511 H           1 B69       0.0427
     47 H19        24.1091   56.7015   42.9672 H           1 B69       0.0427
     48 H20        25.4278   58.5074   42.3683 H           1 B69       0.0288
     49 H21        25.0402   57.8214   40.7984 H           1 B69       0.0288
     50 H22        27.2516   58.4434   40.6382 H           1 B69       0.0298
     51 H23        27.3349   56.7119   40.7917 H           1 B69       0.0298
     52 H24        29.1390   58.1002   41.8990 H           1 B69       0.0695
@<TRIPOS>BOND
     1     1     2   1
     2     2     3   1
     3     3     4   1
     4     4     5   1
     5     5     6  ar
     6     5     8  ar
     7     6     7  ar
     8     7    10  ar
     9     8     9  ar
    10     9    10  ar
    11    10    11   1
    12    11    12  ar
    13    11    14  ar
    14    12    13  ar
    15    13    16  ar
    16    14    15  ar
    17    15    16  ar
    18    16    17   1
    19    17    18   1
    20    18    19   1
    21    19    20   1
    22    20    21   1
    23    20    25   1
    24    21    22  ar
    25    21    23  ar
    26    21    24  ar
    27    25    26  ar
    28    25    27  ar
    29    25    28  ar
    30     1    29   1
    31     1    30   1
    32     1    31   1
    33     2    32   1
    34     2    33   1
    35     3    34   1
    36     3    35   1
    37     4    36   1
    38     4    37   1
    39     6    38   1
    40     7    39   1
    41     8    40   1
    42     9    41   1
    43    12    42   1
    44    13    43   1
    45    14    44   1
    46    15    45   1
    47    17    46   1
    48    17    47   1
    49    18    48   1
    50    18    49   1
    51    19    50   1
    52    19    51   1
    53    20    52   1
@<TRIPOS>SUBSTRUCTURE
     1  B69      1

