@<TRIPOS>MOLECULE
2zcr_ligand_090
    52    53
SMALL
GAST_HUCK
****
This file was generated by PARSER (from files_GN.cpp)

@<TRIPOS>ATOM
      1 CAA        12.4911   57.5487   36.4581 C.3         1 B69      -0.0651
      2 CAP        12.6844   56.5379   37.6079 C.3         1 B69      -0.0541
      3 CAQ        13.3024   57.1833   38.8778 C.3         1 B69      -0.0435
      4 CAS        14.0026   56.1732   39.8363 C.3         1 B69      -0.0191
      5 CAV        15.1982   55.4627   39.2764 C.ar        1 B69      -0.0429
      6 CAI        15.3205   54.0556   39.3774 C.ar        1 B69      -0.0600
      7 CAM        16.4367   53.3802   38.8447 C.ar        1 B69      -0.0616
      8 CAH        16.2542   56.1782   38.6671 C.ar        1 B69      -0.0600
      9 CAL        17.3576   55.5070   38.1085 C.ar        1 B69      -0.0616
     10 CAX        17.4549   54.1045   38.1923 C.ar        1 B69      -0.0283
     11 CAY        18.5675   53.4362   37.6310 C.ar        1 B69      -0.0283
     12 CAO        18.4350   52.7289   36.4178 C.ar        1 B69      -0.0616
     13 CAK        19.5524   52.0892   35.8445 C.ar        1 B69      -0.0600
     14 CAN        19.8287   53.4951   38.2596 C.ar        1 B69      -0.0616
     15 CAJ        20.9350   52.8319   37.6955 C.ar        1 B69      -0.0600
     16 CAW        20.8143   52.1077   36.4852 C.ar        1 B69      -0.0429
     17 CAT        22.0270   51.4890   35.8688 C.3         1 B69      -0.0190
     18 CAR        21.8301   50.1431   35.1096 C.3         1 B69      -0.0402
     19 CAU        23.1662   49.4481   34.6926 C.3         1 B69      -0.0165
     20 CAZ        23.1728   48.6728   33.3304 C.3         1 B69       0.1121
     21 PBA        22.0316   47.4570   33.1957 P.3         1 B69       0.0795
     22 OAC        20.6867   47.9814   33.2068 O.co2       1 B69      -0.5610
     23 OAD        22.1382   46.7611   31.9422 O.co2       1 B69      -0.5610
     24 OAB        22.1530   46.4910   34.2542 O.co2       1 B69      -0.5610
     25 SBB        24.8593   48.0651   32.9677 S.o2        1 B69      -0.1731
     26 OAG        25.8984   48.3400   34.2719 O.co2       1 B69      -0.4830
     27 OAF        25.4449   48.9022   31.6229 O.co2       1 B69      -0.4830
     28 OAE        24.8997   46.4095   32.6255 O.co2       1 B69      -0.4830
     29 H1         12.0263   57.0603   35.5986 H           1 B69       0.0230
     30 H2         13.4593   57.9463   36.1439 H           1 B69       0.0230
     31 H3         11.8559   58.3799   36.7757 H           1 B69       0.0230
     32 H4         13.3290   55.7377   37.2376 H           1 B69       0.0264
     33 H5         11.7153   56.0959   37.8590 H           1 B69       0.0264
     34 H6         12.4991   57.6855   39.4307 H           1 B69       0.0287
     35 H7         14.0229   57.9535   38.5967 H           1 B69       0.0287
     36 H8         13.2515   55.4563   40.1708 H           1 B69       0.0427
     37 H9         14.3334   56.7193   40.7227 H           1 B69       0.0427
     38 H10        14.6015   53.5045   39.8538 H           1 B69       0.0558
     39 H11        16.5057   52.3634   38.9496 H           1 B69       0.0600
     40 H12        16.2282   57.1996   38.6151 H           1 B69       0.0558
     41 H13        18.0871   56.0458   37.6302 H           1 B69       0.0600
     42 H14        17.5375   52.6942   35.9323 H           1 B69       0.0600
     43 H15        19.4242   51.6087   34.9524 H           1 B69       0.0558
     44 H16        19.9505   54.0221   39.1306 H           1 B69       0.0600
     45 H17        21.8361   52.8975   38.1752 H           1 B69       0.0558
     46 H18        22.7850   51.3263   36.6396 H           1 B69       0.0427
     47 H19        22.4365   52.2177   35.1625 H           1 B69       0.0427
     48 H20        21.2446   50.3478   34.2107 H           1 B69       0.0288
     49 H21        21.2540   49.4551   35.7387 H           1 B69       0.0288
     50 H22        23.4716   48.7773   35.5001 H           1 B69       0.0298
     51 H23        23.9341   50.2238   34.6152 H           1 B69       0.0298
     52 H24        22.9455   49.4010   32.5506 H           1 B69       0.0695
@<TRIPOS>BOND
     1     1     2   1
     2     2     3   1
     3     3     4   1
     4     4     5   1
     5     5     6  ar
     6     5     8  ar
     7     6     7  ar
     8     7    10  ar
     9     8     9  ar
    10     9    10  ar
    11    10    11   1
    12    11    12  ar
    13    11    14  ar
    14    12    13  ar
    15    13    16  ar
    16    14    15  ar
    17    15    16  ar
    18    16    17   1
    19    17    18   1
    20    18    19   1
    21    19    20   1
    22    20    21   1
    23    20    25   1
    24    21    22  ar
    25    21    23  ar
    26    21    24  ar
    27    25    26  ar
    28    25    27  ar
    29    25    28  ar
    30     1    29   1
    31     1    30   1
    32     1    31   1
    33     2    32   1
    34     2    33   1
    35     3    34   1
    36     3    35   1
    37     4    36   1
    38     4    37   1
    39     6    38   1
    40     7    39   1
    41     8    40   1
    42     9    41   1
    43    12    42   1
    44    13    43   1
    45    14    44   1
    46    15    45   1
    47    17    46   1
    48    17    47   1
    49    18    48   1
    50    18    49   1
    51    19    50   1
    52    19    51   1
    53    20    52   1
@<TRIPOS>SUBSTRUCTURE
     1  B69      1

