@<TRIPOS>MOLECULE
2zcr_ligand_016
    52    53
SMALL
GAST_HUCK
****
This file was generated by PARSER (from files_GN.cpp)

@<TRIPOS>ATOM
      1 CAA        25.3106   58.0368   41.4501 C.3         1 B69      -0.0651
      2 CAP        24.0764   57.2203   40.9984 C.3         1 B69      -0.0541
      3 CAQ        24.1188   55.7526   41.5017 C.3         1 B69      -0.0435
      4 CAS        23.0147   54.8205   40.8964 C.3         1 B69      -0.0191
      5 CAV        23.5415   53.7474   40.0047 C.ar        1 B69      -0.0429
      6 CAI        23.0311   53.5467   38.7004 C.ar        1 B69      -0.0600
      7 CAM        23.5189   52.5062   37.8882 C.ar        1 B69      -0.0616
      8 CAH        24.5549   52.8705   40.4700 C.ar        1 B69      -0.0600
      9 CAL        25.0458   51.8372   39.6573 C.ar        1 B69      -0.0616
     10 CAX        24.5322   51.6439   38.3567 C.ar        1 B69      -0.0283
     11 CAY        25.0198   50.5862   37.5503 C.ar        1 B69      -0.0283
     12 CAO        26.0186   50.8182   36.5736 C.ar        1 B69      -0.0616
     13 CAK        26.5226   49.7490   35.8078 C.ar        1 B69      -0.0600
     14 CAN        24.5251   49.2819   37.7263 C.ar        1 B69      -0.0616
     15 CAJ        25.0179   48.2186   36.9460 C.ar        1 B69      -0.0600
     16 CAW        26.0392   48.4328   35.9878 C.ar        1 B69      -0.0429
     17 CAT        26.6115   47.2861   35.2283 C.3         1 B69      -0.0190
     18 CAR        27.8657   46.6495   35.8963 C.3         1 B69      -0.0402
     19 CAU        27.6390   46.2577   37.3873 C.3         1 B69      -0.0165
     20 CAZ        28.7696   45.5117   38.1669 C.3         1 B69       0.1121
     21 PBA        30.1937   46.3658   38.3143 P.3         1 B69       0.0795
     22 OAC        29.9561   47.7242   38.7291 O.co2       1 B69      -0.5610
     23 OAD        31.0520   45.7734   39.3161 O.co2       1 B69      -0.5610
     24 OAB        30.9357   46.4009   37.0805 O.co2       1 B69      -0.5610
     25 SBB        29.0683   43.8179   37.5753 S.o2        1 B69      -0.1731
     26 OAG        29.5967   43.8090   35.9698 O.co2       1 B69      -0.4830
     27 OAF        27.6437   42.9158   37.6868 O.co2       1 B69      -0.4830
     28 OAE        30.2549   43.0802   38.5293 O.co2       1 B69      -0.4830
     29 H1         25.2361   59.0604   41.0741 H           1 B69       0.0230
     30 H2         26.2295   57.5920   41.0567 H           1 B69       0.0230
     31 H3         25.3706   58.0656   42.5411 H           1 B69       0.0230
     32 H4         24.0396   57.2330   39.9076 H           1 B69       0.0264
     33 H5         23.1748   57.7091   41.3790 H           1 B69       0.0264
     34 H6         24.0114   55.7675   42.5923 H           1 B69       0.0287
     35 H7         25.1152   55.3532   41.2882 H           1 B69       0.0287
     36 H8         22.2658   55.4258   40.3757 H           1 B69       0.0427
     37 H9         22.4762   54.3272   41.7143 H           1 B69       0.0427
     38 H10        22.2951   54.1532   38.3362 H           1 B69       0.0558
     39 H11        23.1192   52.3739   36.9547 H           1 B69       0.0600
     40 H12        24.9381   52.9821   41.4113 H           1 B69       0.0558
     41 H13        25.7875   51.2292   40.0153 H           1 B69       0.0600
     42 H14        26.4013   51.7598   36.4401 H           1 B69       0.0600
     43 H15        27.2594   49.9393   35.1216 H           1 B69       0.0558
     44 H16        23.8110   49.0818   38.4362 H           1 B69       0.0600
     45 H17        24.6504   47.2754   37.1025 H           1 B69       0.0558
     46 H18        26.8900   47.6223   34.2191 H           1 B69       0.0427
     47 H19        25.8550   46.5046   35.0948 H           1 B69       0.0427
     48 H20        28.7066   47.3428   35.8040 H           1 B69       0.0288
     49 H21        28.1149   45.7506   35.3260 H           1 B69       0.0288
     50 H22        26.7427   45.6415   37.4358 H           1 B69       0.0298
     51 H23        27.4197   47.1721   37.9461 H           1 B69       0.0298
     52 H24        28.3869   45.3945   39.1824 H           1 B69       0.0695
@<TRIPOS>BOND
     1     1     2   1
     2     2     3   1
     3     3     4   1
     4     4     5   1
     5     5     6  ar
     6     5     8  ar
     7     6     7  ar
     8     7    10  ar
     9     8     9  ar
    10     9    10  ar
    11    10    11   1
    12    11    12  ar
    13    11    14  ar
    14    12    13  ar
    15    13    16  ar
    16    14    15  ar
    17    15    16  ar
    18    16    17   1
    19    17    18   1
    20    18    19   1
    21    19    20   1
    22    20    21   1
    23    20    25   1
    24    21    22  ar
    25    21    23  ar
    26    21    24  ar
    27    25    26  ar
    28    25    27  ar
    29    25    28  ar
    30     1    29   1
    31     1    30   1
    32     1    31   1
    33     2    32   1
    34     2    33   1
    35     3    34   1
    36     3    35   1
    37     4    36   1
    38     4    37   1
    39     6    38   1
    40     7    39   1
    41     8    40   1
    42     9    41   1
    43    12    42   1
    44    13    43   1
    45    14    44   1
    46    15    45   1
    47    17    46   1
    48    17    47   1
    49    18    48   1
    50    18    49   1
    51    19    50   1
    52    19    51   1
    53    20    52   1
@<TRIPOS>SUBSTRUCTURE
     1  B69      1

