@<TRIPOS>MOLECULE
2zcr_ligand_038
    52    53
SMALL
GAST_HUCK
****
This file was generated by PARSER (from files_GN.cpp)

@<TRIPOS>ATOM
      1 CAA        15.7857   56.5268   35.4112 C.3         1 B69      -0.0651
      2 CAP        17.1921   55.9056   35.1986 C.3         1 B69      -0.0541
      3 CAQ        18.3228   56.5779   36.0415 C.3         1 B69      -0.0435
      4 CAS        18.9417   55.6840   37.1582 C.3         1 B69      -0.0191
      5 CAV        19.3995   54.3667   36.6539 C.ar        1 B69      -0.0429
      6 CAI        18.6822   53.1829   36.9581 C.ar        1 B69      -0.0600
      7 CAM        19.0683   51.9488   36.4145 C.ar        1 B69      -0.0616
      8 CAH        20.5602   54.2654   35.8394 C.ar        1 B69      -0.0600
      9 CAL        20.9586   53.0309   35.3026 C.ar        1 B69      -0.0616
     10 CAX        20.2036   51.8670   35.5764 C.ar        1 B69      -0.0283
     11 CAY        20.6056   50.6134   35.0771 C.ar        1 B69      -0.0283
     12 CAO        21.5369   49.8414   35.8062 C.ar        1 B69      -0.0616
     13 CAK        21.8862   48.5487   35.3762 C.ar        1 B69      -0.0600
     14 CAN        20.0288   50.0685   33.9029 C.ar        1 B69      -0.0616
     15 CAJ        20.3757   48.7756   33.4738 C.ar        1 B69      -0.0600
     16 CAW        21.3044   47.9953   34.2117 C.ar        1 B69      -0.0429
     17 CAT        21.6425   46.6084   33.7922 C.3         1 B69      -0.0190
     18 CAR        22.8949   46.4834   32.8687 C.3         1 B69      -0.0402
     19 CAU        24.1228   47.3275   33.3230 C.3         1 B69      -0.0165
     20 CAZ        25.5132   46.6125   33.3337 C.3         1 B69       0.1121
     21 PBA        26.6265   47.5262   34.1950 P.3         1 B69       0.0795
     22 OAC        26.5249   47.2444   35.6076 O.co2       1 B69      -0.5610
     23 OAD        28.0033   47.2805   33.8272 O.co2       1 B69      -0.5610
     24 OAB        26.3902   48.9425   34.0471 O.co2       1 B69      -0.5610
     25 SBB        26.1753   46.2098   31.6865 S.o2        1 B69      -0.1731
     26 OAG        26.5412   47.6356   30.8568 O.co2       1 B69      -0.4830
     27 OAF        25.0410   45.3078   30.8109 O.co2       1 B69      -0.4830
     28 OAE        27.5728   45.2691   31.8286 O.co2       1 B69      -0.4830
     29 H1         15.0511   55.9579   34.8376 H           1 B69       0.0230
     30 H2         15.7761   57.5659   35.0635 H           1 B69       0.0230
     31 H3         15.5125   56.4990   36.4711 H           1 B69       0.0230
     32 H4         17.4456   55.9884   34.1342 H           1 B69       0.0264
     33 H5         17.1364   54.8326   35.4295 H           1 B69       0.0264
     34 H6         17.9421   57.4900   36.5138 H           1 B69       0.0287
     35 H7         19.1288   56.8941   35.3619 H           1 B69       0.0287
     36 H8         18.1983   55.5706   37.9536 H           1 B69       0.0427
     37 H9         19.8021   56.2001   37.5935 H           1 B69       0.0427
     38 H10        17.8554   53.2190   37.5464 H           1 B69       0.0558
     39 H11        18.5255   51.1110   36.6328 H           1 B69       0.0600
     40 H12        21.1035   55.0962   35.6196 H           1 B69       0.0558
     41 H13        21.7894   52.9835   34.7086 H           1 B69       0.0600
     42 H14        21.9485   50.2032   36.6674 H           1 B69       0.0600
     43 H15        22.5513   47.9926   35.9255 H           1 B69       0.0558
     44 H16        19.3425   50.6103   33.3654 H           1 B69       0.0600
     45 H17        19.9304   48.3986   32.6349 H           1 B69       0.0558
     46 H18        20.7882   46.1529   33.2658 H           1 B69       0.0427
     47 H19        21.8002   45.9977   34.6882 H           1 B69       0.0427
     48 H20        22.6064   46.7840   31.8540 H           1 B69       0.0288
     49 H21        23.1782   45.4257   32.8357 H           1 B69       0.0288
     50 H22        23.9112   47.6873   34.3365 H           1 B69       0.0298
     51 H23        24.1680   48.1982   32.6648 H           1 B69       0.0298
     52 H24        25.4035   45.6593   33.8618 H           1 B69       0.0695
@<TRIPOS>BOND
     1     1     2   1
     2     2     3   1
     3     3     4   1
     4     4     5   1
     5     5     6  ar
     6     5     8  ar
     7     6     7  ar
     8     7    10  ar
     9     8     9  ar
    10     9    10  ar
    11    10    11   1
    12    11    12  ar
    13    11    14  ar
    14    12    13  ar
    15    13    16  ar
    16    14    15  ar
    17    15    16  ar
    18    16    17   1
    19    17    18   1
    20    18    19   1
    21    19    20   1
    22    20    21   1
    23    20    25   1
    24    21    22  ar
    25    21    23  ar
    26    21    24  ar
    27    25    26  ar
    28    25    27  ar
    29    25    28  ar
    30     1    29   1
    31     1    30   1
    32     1    31   1
    33     2    32   1
    34     2    33   1
    35     3    34   1
    36     3    35   1
    37     4    36   1
    38     4    37   1
    39     6    38   1
    40     7    39   1
    41     8    40   1
    42     9    41   1
    43    12    42   1
    44    13    43   1
    45    14    44   1
    46    15    45   1
    47    17    46   1
    48    17    47   1
    49    18    48   1
    50    18    49   1
    51    19    50   1
    52    19    51   1
    53    20    52   1
@<TRIPOS>SUBSTRUCTURE
     1  B69      1

