@<TRIPOS>MOLECULE
2zcr_ligand_009
    52    53
SMALL
GAST_HUCK
****
This file was generated by PARSER (from files_GN.cpp)

@<TRIPOS>ATOM
      1 CAA        24.3827   57.8248   40.6026 C.3         1 B69      -0.0651
      2 CAP        23.6911   56.6465   41.3296 C.3         1 B69      -0.0541
      3 CAQ        24.1409   55.2160   40.8984 C.3         1 B69      -0.0435
      4 CAS        25.5813   54.7005   41.2371 C.3         1 B69      -0.0191
      5 CAV        26.3974   55.5479   42.1473 C.ar        1 B69      -0.0429
      6 CAI        26.0550   55.6632   43.5132 C.ar        1 B69      -0.0600
      7 CAM        26.7384   56.5637   44.3502 C.ar        1 B69      -0.0616
      8 CAH        27.4779   56.3236   41.6536 C.ar        1 B69      -0.0600
      9 CAL        28.1293   57.2552   42.4789 C.ar        1 B69      -0.0616
     10 CAX        27.7664   57.3781   43.8358 C.ar        1 B69      -0.0283
     11 CAY        28.4541   58.2799   44.6749 C.ar        1 B69      -0.0283
     12 CAO        28.2612   59.6754   44.5799 C.ar        1 B69      -0.0616
     13 CAK        28.9799   60.5545   45.4139 C.ar        1 B69      -0.0600
     14 CAN        29.3771   57.7784   45.6145 C.ar        1 B69      -0.0616
     15 CAJ        30.1168   58.6554   46.4196 C.ar        1 B69      -0.0600
     16 CAW        29.9267   60.0582   46.3409 C.ar        1 B69      -0.0429
     17 CAT        30.7350   60.9605   47.2017 C.3         1 B69      -0.0190
     18 CAR        30.4631   60.7645   48.7222 C.3         1 B69      -0.0402
     19 CAU        29.3875   61.6941   49.3629 C.3         1 B69      -0.0165
     20 CAZ        28.4492   61.1069   50.4808 C.3         1 B69       0.1121
     21 PBA        29.1201   59.9889   51.5372 P.3         1 B69       0.0795
     22 OAC        30.4600   60.3708   51.9211 O.co2       1 B69      -0.5610
     23 OAD        28.3655   59.8898   52.7562 O.co2       1 B69      -0.5610
     24 OAB        29.2123   58.6575   50.9915 O.co2       1 B69      -0.5610
     25 SBB        26.8132   60.5774   49.8615 S.o2        1 B69      -0.1731
     26 OAG        26.5480   61.0821   48.2697 O.co2       1 B69      -0.4830
     27 OAF        25.6220   61.2780   50.8347 O.co2       1 B69      -0.4830
     28 OAE        26.6330   58.8959   49.9094 O.co2       1 B69      -0.4830
     29 H1         24.0349   58.7706   41.0247 H           1 B69       0.0230
     30 H2         24.1417   57.8016   39.5381 H           1 B69       0.0230
     31 H3         25.4524   57.7775   40.7166 H           1 B69       0.0230
     32 H4         22.6272   56.7325   41.1134 H           1 B69       0.0264
     33 H5         23.8143   56.7672   42.4140 H           1 B69       0.0264
     34 H6         24.0020   55.1546   39.8134 H           1 B69       0.0287
     35 H7         23.4262   54.5200   41.3511 H           1 B69       0.0287
     36 H8         26.1168   54.5628   40.2969 H           1 B69       0.0427
     37 H9         25.5032   53.7003   41.6745 H           1 B69       0.0427
     38 H10        25.2927   55.1020   43.9042 H           1 B69       0.0558
     39 H11        26.4411   56.6559   45.3234 H           1 B69       0.0600
     40 H12        27.7691   56.2469   40.6716 H           1 B69       0.0558
     41 H13        28.8676   57.8427   42.0826 H           1 B69       0.0600
     42 H14        27.5939   60.0625   43.9061 H           1 B69       0.0600
     43 H15        28.8168   61.5634   45.3361 H           1 B69       0.0558
     44 H16        29.5396   56.7707   45.7007 H           1 B69       0.0600
     45 H17        30.8027   58.2593   47.0706 H           1 B69       0.0558
     46 H18        30.5777   62.0079   46.9347 H           1 B69       0.0427
     47 H19        31.7889   60.7512   46.9993 H           1 B69       0.0427
     48 H20        31.4053   60.9238   49.2553 H           1 B69       0.0288
     49 H21        30.1895   59.7262   48.9027 H           1 B69       0.0288
     50 H22        28.7704   62.1240   48.5738 H           1 B69       0.0298
     51 H23        29.9229   62.5459   49.7918 H           1 B69       0.0298
     52 H24        28.2107   61.9582   51.1208 H           1 B69       0.0695
@<TRIPOS>BOND
     1     1     2   1
     2     2     3   1
     3     3     4   1
     4     4     5   1
     5     5     6  ar
     6     5     8  ar
     7     6     7  ar
     8     7    10  ar
     9     8     9  ar
    10     9    10  ar
    11    10    11   1
    12    11    12  ar
    13    11    14  ar
    14    12    13  ar
    15    13    16  ar
    16    14    15  ar
    17    15    16  ar
    18    16    17   1
    19    17    18   1
    20    18    19   1
    21    19    20   1
    22    20    21   1
    23    20    25   1
    24    21    22  ar
    25    21    23  ar
    26    21    24  ar
    27    25    26  ar
    28    25    27  ar
    29    25    28  ar
    30     1    29   1
    31     1    30   1
    32     1    31   1
    33     2    32   1
    34     2    33   1
    35     3    34   1
    36     3    35   1
    37     4    36   1
    38     4    37   1
    39     6    38   1
    40     7    39   1
    41     8    40   1
    42     9    41   1
    43    12    42   1
    44    13    43   1
    45    14    44   1
    46    15    45   1
    47    17    46   1
    48    17    47   1
    49    18    48   1
    50    18    49   1
    51    19    50   1
    52    19    51   1
    53    20    52   1
@<TRIPOS>SUBSTRUCTURE
     1  B69      1

