@<TRIPOS>MOLECULE
2zcr_ligand_029
    52    53
SMALL
GAST_HUCK
****
This file was generated by PARSER (from files_GN.cpp)

@<TRIPOS>ATOM
      1 CAA        11.9337   61.8237   39.3938 C.3         1 B69      -0.0651
      2 CAP        10.4949   61.4437   39.8258 C.3         1 B69      -0.0541
      3 CAQ         9.3845   61.6569   38.7489 C.3         1 B69      -0.0435
      4 CAS         9.2422   60.6566   37.5540 C.3         1 B69      -0.0191
      5 CAV        10.3690   59.7092   37.3453 C.ar        1 B69      -0.0429
      6 CAI        10.3910   58.4626   38.0121 C.ar        1 B69      -0.0600
      7 CAM        11.4851   57.5931   37.8749 C.ar        1 B69      -0.0616
      8 CAH        11.4552   60.0510   36.5098 C.ar        1 B69      -0.0600
      9 CAL        12.5651   59.1921   36.3886 C.ar        1 B69      -0.0616
     10 CAX        12.5906   57.9588   37.0738 C.ar        1 B69      -0.0283
     11 CAY        13.6954   57.0834   36.9565 C.ar        1 B69      -0.0283
     12 CAO        13.5648   55.8619   36.2606 C.ar        1 B69      -0.0616
     13 CAK        14.6612   54.9891   36.1361 C.ar        1 B69      -0.0600
     14 CAN        14.9362   57.4016   37.5470 C.ar        1 B69      -0.0616
     15 CAJ        16.0243   56.5158   37.4420 C.ar        1 B69      -0.0600
     16 CAW        15.9034   55.2944   36.7334 C.ar        1 B69      -0.0429
     17 CAT        17.0767   54.3900   36.5621 C.3         1 B69      -0.0190
     18 CAR        16.7674   52.8629   36.6706 C.3         1 B69      -0.0402
     19 CAU        17.9734   51.9895   37.1200 C.3         1 B69      -0.0165
     20 CAZ        19.2520   52.0766   36.2096 C.3         1 B69       0.1121
     21 PBA        19.4605   50.7697   35.1864 P.3         1 B69       0.0795
     22 OAC        20.6180   50.9326   34.3443 O.co2       1 B69      -0.5610
     23 OAD        19.5846   49.5524   35.9421 O.co2       1 B69      -0.5610
     24 OAB        18.3236   50.6345   34.3102 O.co2       1 B69      -0.5610
     25 SBB        20.7595   52.3648   37.1804 S.o2        1 B69      -0.1731
     26 OAG        21.9594   53.0309   36.1876 O.co2       1 B69      -0.4830
     27 OAF        21.3190   50.9097   37.8392 O.co2       1 B69      -0.4830
     28 OAE        20.4331   53.4626   38.4273 O.co2       1 B69      -0.4830
     29 H1         12.5646   61.9431   40.2803 H           1 B69       0.0230
     30 H2         11.9372   62.7688   38.8456 H           1 B69       0.0230
     31 H3         12.3704   61.0442   38.7623 H           1 B69       0.0230
     32 H4         10.2494   62.0751   40.6873 H           1 B69       0.0264
     33 H5         10.4867   60.4119   40.1849 H           1 B69       0.0264
     34 H6          9.4901   62.6677   38.3515 H           1 B69       0.0287
     35 H7          8.4292   61.6466   39.2820 H           1 B69       0.0287
     36 H8          9.0881   61.2356   36.6372 H           1 B69       0.0427
     37 H9          8.3237   60.0784   37.6817 H           1 B69       0.0427
     38 H10         9.6154   58.1873   38.6221 H           1 B69       0.0558
     39 H11        11.4790   56.6968   38.3690 H           1 B69       0.0600
     40 H12        11.4498   60.9315   35.9899 H           1 B69       0.0558
     41 H13        13.3565   59.4829   35.8073 H           1 B69       0.0600
     42 H14        12.6721   55.6050   35.8326 H           1 B69       0.0600
     43 H15        14.5375   54.1206   35.6117 H           1 B69       0.0558
     44 H16        15.0521   58.2786   38.0654 H           1 B69       0.0600
     45 H17        16.9125   56.7791   37.8753 H           1 B69       0.0558
     46 H18        17.8481   54.6460   37.2922 H           1 B69       0.0427
     47 H19        17.4920   54.5922   35.5743 H           1 B69       0.0427
     48 H20        16.4117   52.5013   35.7018 H           1 B69       0.0288
     49 H21        15.9636   52.7063   37.3934 H           1 B69       0.0288
     50 H22        17.6246   50.9522   37.2028 H           1 B69       0.0298
     51 H23        18.2124   52.2924   38.1420 H           1 B69       0.0298
     52 H24        19.1773   52.9516   35.5627 H           1 B69       0.0695
@<TRIPOS>BOND
     1     1     2   1
     2     2     3   1
     3     3     4   1
     4     4     5   1
     5     5     6  ar
     6     5     8  ar
     7     6     7  ar
     8     7    10  ar
     9     8     9  ar
    10     9    10  ar
    11    10    11   1
    12    11    12  ar
    13    11    14  ar
    14    12    13  ar
    15    13    16  ar
    16    14    15  ar
    17    15    16  ar
    18    16    17   1
    19    17    18   1
    20    18    19   1
    21    19    20   1
    22    20    21   1
    23    20    25   1
    24    21    22  ar
    25    21    23  ar
    26    21    24  ar
    27    25    26  ar
    28    25    27  ar
    29    25    28  ar
    30     1    29   1
    31     1    30   1
    32     1    31   1
    33     2    32   1
    34     2    33   1
    35     3    34   1
    36     3    35   1
    37     4    36   1
    38     4    37   1
    39     6    38   1
    40     7    39   1
    41     8    40   1
    42     9    41   1
    43    12    42   1
    44    13    43   1
    45    14    44   1
    46    15    45   1
    47    17    46   1
    48    17    47   1
    49    18    48   1
    50    18    49   1
    51    19    50   1
    52    19    51   1
    53    20    52   1
@<TRIPOS>SUBSTRUCTURE
     1  B69      1

