@<TRIPOS>MOLECULE
2zcr_ligand_043
    52    53
SMALL
GAST_HUCK
****
This file was generated by PARSER (from files_GN.cpp)

@<TRIPOS>ATOM
      1 CAA        11.9484   58.6589   38.6552 C.3         1 B69      -0.0651
      2 CAP        13.0076   57.5784   38.9786 C.3         1 B69      -0.0541
      3 CAQ        13.5661   57.7037   40.4289 C.3         1 B69      -0.0435
      4 CAS        14.1534   56.3852   41.0152 C.3         1 B69      -0.0191
      5 CAV        14.9763   55.5547   40.0874 C.ar        1 B69      -0.0429
      6 CAI        16.0791   56.1134   39.4024 C.ar        1 B69      -0.0600
      7 CAM        16.8910   55.3076   38.5832 C.ar        1 B69      -0.0616
      8 CAH        14.6852   54.1857   39.8997 C.ar        1 B69      -0.0600
      9 CAL        15.4661   53.3911   39.0453 C.ar        1 B69      -0.0616
     10 CAX        16.5760   53.9447   38.3734 C.ar        1 B69      -0.0283
     11 CAY        17.3551   53.1405   37.5101 C.ar        1 B69      -0.0283
     12 CAO        16.9116   52.9026   36.1877 C.ar        1 B69      -0.0616
     13 CAK        17.7071   52.1647   35.2996 C.ar        1 B69      -0.0600
     14 CAN        18.5996   52.6191   37.9276 C.ar        1 B69      -0.0616
     15 CAJ        19.3841   51.8624   37.0374 C.ar        1 B69      -0.0600
     16 CAW        18.9596   51.6479   35.7043 C.ar        1 B69      -0.0429
     17 CAT        19.8253   50.9216   34.7313 C.3         1 B69      -0.0190
     18 CAR        20.2819   49.5271   35.2551 C.3         1 B69      -0.0402
     19 CAU        20.9502   48.6122   34.1665 C.3         1 B69      -0.0165
     20 CAZ        22.4787   48.2900   34.2614 C.3         1 B69       0.1121
     21 PBA        22.9482   47.4338   35.6215 P.3         1 B69       0.0795
     22 OAC        22.5092   46.0613   35.5533 O.co2       1 B69      -0.5610
     23 OAD        24.3854   47.3782   35.7042 O.co2       1 B69      -0.5610
     24 OAB        22.4630   48.0053   36.8528 O.co2       1 B69      -0.5610
     25 SBB        23.5524   49.7346   33.9974 S.o2        1 B69      -0.1731
     26 OAG        24.4222   50.1089   35.4050 O.co2       1 B69      -0.4830
     27 OAF        22.6065   51.0710   33.5701 O.co2       1 B69      -0.4830
     28 OAE        24.6407   49.3870   32.7458 O.co2       1 B69      -0.4830
     29 H1         11.6934   58.6256   37.5861 H           1 B69       0.0230
     30 H2         12.3297   59.6646   38.8901 H           1 B69       0.0230
     31 H3         11.0326   58.4832   39.2367 H           1 B69       0.0230
     32 H4         13.8374   57.6831   38.2664 H           1 B69       0.0264
     33 H5         12.5523   56.5899   38.8301 H           1 B69       0.0264
     34 H6         12.7519   58.0335   41.0897 H           1 B69       0.0287
     35 H7         14.3403   58.4816   40.4354 H           1 B69       0.0287
     36 H8         13.3172   55.8060   41.4126 H           1 B69       0.0427
     37 H9         14.7820   56.6576   41.8704 H           1 B69       0.0427
     38 H10        16.3280   57.0987   39.5267 H           1 B69       0.0558
     39 H11        17.6839   55.7325   38.0817 H           1 B69       0.0600
     40 H12        13.8975   53.7576   40.3907 H           1 B69       0.0558
     41 H13        15.2250   52.4052   38.9313 H           1 B69       0.0600
     42 H14        16.0178   53.2774   35.8606 H           1 B69       0.0600
     43 H15        17.3708   52.0112   34.3505 H           1 B69       0.0558
     44 H16        18.9309   52.7771   38.8855 H           1 B69       0.0600
     45 H17        20.2796   51.4835   37.3656 H           1 B69       0.0558
     46 H18        20.7078   51.5243   34.4852 H           1 B69       0.0427
     47 H19        19.2641   50.7982   33.7997 H           1 B69       0.0427
     48 H20        19.3956   48.9866   35.6263 H           1 B69       0.0288
     49 H21        20.9577   49.6723   36.1061 H           1 B69       0.0288
     50 H22        20.7645   49.0546   33.1763 H           1 B69       0.0298
     51 H23        20.4098   47.6580   34.1678 H           1 B69       0.0298
     52 H24        22.6758   47.6226   33.4117 H           1 B69       0.0695
@<TRIPOS>BOND
     1     1     2   1
     2     2     3   1
     3     3     4   1
     4     4     5   1
     5     5     6  ar
     6     5     8  ar
     7     6     7  ar
     8     7    10  ar
     9     8     9  ar
    10     9    10  ar
    11    10    11   1
    12    11    12  ar
    13    11    14  ar
    14    12    13  ar
    15    13    16  ar
    16    14    15  ar
    17    15    16  ar
    18    16    17   1
    19    17    18   1
    20    18    19   1
    21    19    20   1
    22    20    21   1
    23    20    25   1
    24    21    22  ar
    25    21    23  ar
    26    21    24  ar
    27    25    26  ar
    28    25    27  ar
    29    25    28  ar
    30     1    29   1
    31     1    30   1
    32     1    31   1
    33     2    32   1
    34     2    33   1
    35     3    34   1
    36     3    35   1
    37     4    36   1
    38     4    37   1
    39     6    38   1
    40     7    39   1
    41     8    40   1
    42     9    41   1
    43    12    42   1
    44    13    43   1
    45    14    44   1
    46    15    45   1
    47    17    46   1
    48    17    47   1
    49    18    48   1
    50    18    49   1
    51    19    50   1
    52    19    51   1
    53    20    52   1
@<TRIPOS>SUBSTRUCTURE
     1  B69      1

