@<TRIPOS>MOLECULE
2zcr_ligand_092
    52    53
SMALL
GAST_HUCK
****
This file was generated by PARSER (from files_GN.cpp)

@<TRIPOS>ATOM
      1 CAA        23.2315   56.2367   40.9779 C.3         1 B69      -0.0651
      2 CAP        23.2343   54.7026   40.8031 C.3         1 B69      -0.0541
      3 CAQ        24.6447   54.0755   41.0001 C.3         1 B69      -0.0435
      4 CAS        24.6840   52.5168   41.0471 C.3         1 B69      -0.0191
      5 CAV        24.8686   51.7377   39.7811 C.ar        1 B69      -0.0429
      6 CAI        25.3957   50.4243   39.8564 C.ar        1 B69      -0.0600
      7 CAM        25.6006   49.6477   38.7010 C.ar        1 B69      -0.0616
      8 CAH        24.5100   52.2215   38.5048 C.ar        1 B69      -0.0600
      9 CAL        24.6850   51.4402   37.3463 C.ar        1 B69      -0.0616
     10 CAX        25.2446   50.1480   37.4293 C.ar        1 B69      -0.0283
     11 CAY        25.4730   49.3917   36.2545 C.ar        1 B69      -0.0283
     12 CAO        26.7896   49.0812   35.8459 C.ar        1 B69      -0.0616
     13 CAK        27.0233   48.4001   34.6364 C.ar        1 B69      -0.0600
     14 CAN        24.3962   48.9637   35.4430 C.ar        1 B69      -0.0616
     15 CAJ        24.6316   48.2499   34.2543 C.ar        1 B69      -0.0600
     16 CAW        25.9496   47.9645   33.8280 C.ar        1 B69      -0.0429
     17 CAT        26.1844   47.1936   32.5724 C.3         1 B69      -0.0190
     18 CAR        26.0950   45.6571   32.7844 C.3         1 B69      -0.0402
     19 CAU        27.3031   45.0424   33.5685 C.3         1 B69      -0.0165
     20 CAZ        26.9516   44.0070   34.6845 C.3         1 B69       0.1121
     21 PBA        26.2757   44.6887   36.0586 P.3         1 B69       0.0795
     22 OAC        25.0176   45.3374   35.8000 O.co2       1 B69      -0.5610
     23 OAD        25.9885   43.6974   37.0661 O.co2       1 B69      -0.5610
     24 OAB        27.1385   45.6738   36.6649 O.co2       1 B69      -0.5610
     25 SBB        28.4346   43.0595   35.1422 S.o2        1 B69      -0.1731
     26 OAG        29.5626   44.0641   35.9026 O.co2       1 B69      -0.4830
     27 OAF        29.1431   42.3893   33.7609 O.co2       1 B69      -0.4830
     28 OAE        28.0208   41.8001   36.1915 O.co2       1 B69      -0.4830
     29 H1         22.2372   56.6348   40.7709 H           1 B69       0.0230
     30 H2         23.9422   56.7014   40.2945 H           1 B69       0.0230
     31 H3         23.5025   56.4996   42.0021 H           1 B69       0.0230
     32 H4         22.8504   54.4724   39.8104 H           1 B69       0.0264
     33 H5         22.5398   54.2766   41.5302 H           1 B69       0.0264
     34 H6         25.0310   54.4487   41.9521 H           1 B69       0.0287
     35 H7         25.3241   54.4364   40.2253 H           1 B69       0.0287
     36 H8         23.7812   52.1462   41.5315 H           1 B69       0.0427
     37 H9         25.5114   52.2574   41.7141 H           1 B69       0.0427
     38 H10        25.6525   50.0237   40.7603 H           1 B69       0.0558
     39 H11        25.9984   48.7101   38.7924 H           1 B69       0.0600
     40 H12        24.1209   53.1523   38.3887 H           1 B69       0.0558
     41 H13        24.4197   51.8309   36.4387 H           1 B69       0.0600
     42 H14        27.5889   49.3713   36.4135 H           1 B69       0.0600
     43 H15        27.9902   48.2130   34.3574 H           1 B69       0.0558
     44 H16        23.4311   49.1557   35.7246 H           1 B69       0.0600
     45 H17        23.8317   47.9425   33.6940 H           1 B69       0.0558
     46 H18        27.1628   47.4371   32.1486 H           1 B69       0.0427
     47 H19        25.4442   47.4908   31.8233 H           1 B69       0.0427
     48 H20        26.0454   45.1832   31.7985 H           1 B69       0.0288
     49 H21        25.1449   45.4241   33.2669 H           1 B69       0.0288
     50 H22        27.9228   45.8207   34.0105 H           1 B69       0.0298
     51 H23        27.9427   44.5631   32.8236 H           1 B69       0.0298
     52 H24        26.2387   43.2897   34.2739 H           1 B69       0.0695
@<TRIPOS>BOND
     1     1     2   1
     2     2     3   1
     3     3     4   1
     4     4     5   1
     5     5     6  ar
     6     5     8  ar
     7     6     7  ar
     8     7    10  ar
     9     8     9  ar
    10     9    10  ar
    11    10    11   1
    12    11    12  ar
    13    11    14  ar
    14    12    13  ar
    15    13    16  ar
    16    14    15  ar
    17    15    16  ar
    18    16    17   1
    19    17    18   1
    20    18    19   1
    21    19    20   1
    22    20    21   1
    23    20    25   1
    24    21    22  ar
    25    21    23  ar
    26    21    24  ar
    27    25    26  ar
    28    25    27  ar
    29    25    28  ar
    30     1    29   1
    31     1    30   1
    32     1    31   1
    33     2    32   1
    34     2    33   1
    35     3    34   1
    36     3    35   1
    37     4    36   1
    38     4    37   1
    39     6    38   1
    40     7    39   1
    41     8    40   1
    42     9    41   1
    43    12    42   1
    44    13    43   1
    45    14    44   1
    46    15    45   1
    47    17    46   1
    48    17    47   1
    49    18    48   1
    50    18    49   1
    51    19    50   1
    52    19    51   1
    53    20    52   1
@<TRIPOS>SUBSTRUCTURE
     1  B69      1

