@<TRIPOS>MOLECULE
2zcr_ligand_045
    52    53
SMALL
GAST_HUCK
****
This file was generated by PARSER (from files_GN.cpp)

@<TRIPOS>ATOM
      1 CAA        25.3574   57.9804   42.6846 C.3         1 B69      -0.0651
      2 CAP        24.0603   57.2174   42.3219 C.3         1 B69      -0.0541
      3 CAQ        24.2553   56.2585   41.1209 C.3         1 B69      -0.0435
      4 CAS        23.0811   55.2560   40.9186 C.3         1 B69      -0.0191
      5 CAV        23.4404   54.1045   40.0428 C.ar        1 B69      -0.0429
      6 CAI        22.8255   53.8930   38.7865 C.ar        1 B69      -0.0600
      7 CAM        23.1867   52.7913   37.9826 C.ar        1 B69      -0.0616
      8 CAH        24.4060   53.1704   40.4853 C.ar        1 B69      -0.0600
      9 CAL        24.7767   52.0767   39.6896 C.ar        1 B69      -0.0616
     10 CAX        24.1688   51.8790   38.4306 C.ar        1 B69      -0.0283
     11 CAY        24.5870   50.7944   37.6302 C.ar        1 B69      -0.0283
     12 CAO        25.6872   50.9523   36.7601 C.ar        1 B69      -0.0616
     13 CAK        26.1959   49.8413   36.0677 C.ar        1 B69      -0.0600
     14 CAN        23.9807   49.5269   37.7711 C.ar        1 B69      -0.0616
     15 CAJ        24.5134   48.4147   37.0945 C.ar        1 B69      -0.0600
     16 CAW        25.6339   48.5534   36.2458 C.ar        1 B69      -0.0429
     17 CAT        26.2263   47.3874   35.5431 C.3         1 B69      -0.0190
     18 CAR        27.6423   46.9757   36.0558 C.3         1 B69      -0.0402
     19 CAU        27.6720   46.1104   37.3674 C.3         1 B69      -0.0165
     20 CAZ        28.2797   46.7190   38.6754 C.3         1 B69       0.1121
     21 PBA        27.3297   47.8450   39.4759 P.3         1 B69       0.0795
     22 OAC        27.8157   47.9916   40.8258 O.co2       1 B69      -0.5610
     23 OAD        27.3344   49.1688   38.9053 O.co2       1 B69      -0.5610
     24 OAB        25.9589   47.4190   39.6003 O.co2       1 B69      -0.5610
     25 SBB        29.9922   47.2895   38.4474 S.o2        1 B69      -0.1731
     26 OAG        30.7123   46.4887   37.1377 O.co2       1 B69      -0.4830
     27 OAF        30.8794   46.9657   39.8505 O.co2       1 B69      -0.4830
     28 OAE        30.0266   48.9560   38.1437 O.co2       1 B69      -0.4830
     29 H1         25.1901   58.5845   43.5781 H           1 B69       0.0230
     30 H2         25.6505   58.6378   41.8595 H           1 B69       0.0230
     31 H3         26.1654   57.2766   42.8897 H           1 B69       0.0230
     32 H4         23.2655   57.9367   42.0882 H           1 B69       0.0264
     33 H5         23.7492   56.6354   43.1934 H           1 B69       0.0264
     34 H6         25.1839   55.6988   41.2735 H           1 B69       0.0287
     35 H7         24.3634   56.8534   40.2049 H           1 B69       0.0287
     36 H8         22.2184   55.7987   40.5154 H           1 B69       0.0427
     37 H9         22.7775   54.8374   41.8793 H           1 B69       0.0427
     38 H10        22.1130   54.5370   38.4390 H           1 B69       0.0558
     39 H11        22.7359   52.6602   37.0721 H           1 B69       0.0600
     40 H12        24.8547   53.2802   41.3964 H           1 B69       0.0558
     41 H13        25.4920   51.4260   40.0316 H           1 B69       0.0600
     42 H14        26.1332   51.8663   36.6418 H           1 B69       0.0600
     43 H15        26.9979   49.9747   35.4499 H           1 B69       0.0558
     44 H16        23.1853   49.4007   38.4044 H           1 B69       0.0600
     45 H17        24.0605   47.5056   37.2151 H           1 B69       0.0558
     46 H18        26.3031   47.6429   34.4831 H           1 B69       0.0427
     47 H19        25.5668   46.5181   35.5960 H           1 B69       0.0427
     48 H20        28.2705   47.8614   36.1642 H           1 B69       0.0288
     49 H21        28.0940   46.3752   35.2547 H           1 B69       0.0288
     50 H22        28.2677   45.2127   37.1363 H           1 B69       0.0298
     51 H23        26.6604   45.7326   37.5801 H           1 B69       0.0298
     52 H24        28.3541   45.8671   39.3641 H           1 B69       0.0695
@<TRIPOS>BOND
     1     1     2   1
     2     2     3   1
     3     3     4   1
     4     4     5   1
     5     5     6  ar
     6     5     8  ar
     7     6     7  ar
     8     7    10  ar
     9     8     9  ar
    10     9    10  ar
    11    10    11   1
    12    11    12  ar
    13    11    14  ar
    14    12    13  ar
    15    13    16  ar
    16    14    15  ar
    17    15    16  ar
    18    16    17   1
    19    17    18   1
    20    18    19   1
    21    19    20   1
    22    20    21   1
    23    20    25   1
    24    21    22  ar
    25    21    23  ar
    26    21    24  ar
    27    25    26  ar
    28    25    27  ar
    29    25    28  ar
    30     1    29   1
    31     1    30   1
    32     1    31   1
    33     2    32   1
    34     2    33   1
    35     3    34   1
    36     3    35   1
    37     4    36   1
    38     4    37   1
    39     6    38   1
    40     7    39   1
    41     8    40   1
    42     9    41   1
    43    12    42   1
    44    13    43   1
    45    14    44   1
    46    15    45   1
    47    17    46   1
    48    17    47   1
    49    18    48   1
    50    18    49   1
    51    19    50   1
    52    19    51   1
    53    20    52   1
@<TRIPOS>SUBSTRUCTURE
     1  B69      1

