@<TRIPOS>MOLECULE
2zcr_ligand_027
    52    53
SMALL
GAST_HUCK
****
This file was generated by PARSER (from files_GN.cpp)

@<TRIPOS>ATOM
      1 CAA        16.0879   56.7450   35.6900 C.3         1 B69      -0.0651
      2 CAP        16.8734   56.9232   37.0144 C.3         1 B69      -0.0541
      3 CAQ        16.0175   56.7586   38.3107 C.3         1 B69      -0.0435
      4 CAS        16.0440   55.4069   39.1029 C.3         1 B69      -0.0191
      5 CAV        16.6052   54.2136   38.4073 C.ar        1 B69      -0.0429
      6 CAI        15.9159   53.6351   37.3217 C.ar        1 B69      -0.0600
      7 CAM        16.5157   52.6261   36.5511 C.ar        1 B69      -0.0616
      8 CAH        17.8643   53.6830   38.7676 C.ar        1 B69      -0.0600
      9 CAL        18.4373   52.6327   38.0295 C.ar        1 B69      -0.0616
     10 CAX        17.7930   52.1097   36.8793 C.ar        1 B69      -0.0283
     11 CAY        18.4164   51.1074   36.0687 C.ar        1 B69      -0.0283
     12 CAO        19.7909   51.1816   35.7328 C.ar        1 B69      -0.0616
     13 CAK        20.3960   50.2218   34.9035 C.ar        1 B69      -0.0600
     14 CAN        17.6768   50.0185   35.5425 C.ar        1 B69      -0.0616
     15 CAJ        18.2840   49.0582   34.7139 C.ar        1 B69      -0.0600
     16 CAW        19.6562   49.1392   34.3792 C.ar        1 B69      -0.0429
     17 CAT        20.2410   48.0879   33.4899 C.3         1 B69      -0.0190
     18 CAR        21.7259   48.1920   33.0279 C.3         1 B69      -0.0402
     19 CAU        22.8285   47.8786   34.0865 C.3         1 B69      -0.0165
     20 CAZ        24.2571   47.6511   33.4844 C.3         1 B69       0.1121
     21 PBA        25.3911   47.3265   34.6700 P.3         1 B69       0.0795
     22 OAC        26.6562   46.9029   34.1192 O.co2       1 B69      -0.5610
     23 OAD        25.6345   48.4686   35.5160 O.co2       1 B69      -0.5610
     24 OAB        24.9440   46.2556   35.5285 O.co2       1 B69      -0.5610
     25 SBB        24.8806   49.0016   32.4323 S.o2        1 B69      -0.1731
     26 OAG        25.4621   50.2779   33.3792 O.co2       1 B69      -0.4830
     27 OAF        23.6820   49.5902   31.3956 O.co2       1 B69      -0.4830
     28 OAE        26.1278   48.3818   31.4738 O.co2       1 B69      -0.4830
     29 H1         16.7756   56.7783   34.8401 H           1 B69       0.0230
     30 H2         15.3547   57.5475   35.5737 H           1 B69       0.0230
     31 H3         15.5626   55.7918   35.6672 H           1 B69       0.0230
     32 H4         17.2879   57.9324   36.9946 H           1 B69       0.0264
     33 H5         17.7229   56.2397   37.0242 H           1 B69       0.0264
     34 H6         14.9780   57.0035   38.0712 H           1 B69       0.0287
     35 H7         16.3498   57.5400   39.0013 H           1 B69       0.0287
     36 H8         15.0271   55.1632   39.4253 H           1 B69       0.0427
     37 H9         16.6062   55.5650   40.0284 H           1 B69       0.0427
     38 H10        14.9827   53.9641   37.0679 H           1 B69       0.0558
     39 H11        16.0209   52.3052   35.7180 H           1 B69       0.0600
     40 H12        18.3774   54.0638   39.5635 H           1 B69       0.0558
     41 H13        19.3442   52.2674   38.3303 H           1 B69       0.0600
     42 H14        20.3665   51.9590   36.0671 H           1 B69       0.0600
     43 H15        21.3790   50.3400   34.6851 H           1 B69       0.0558
     44 H16        16.6835   49.9099   35.7573 H           1 B69       0.0600
     45 H17        17.7023   48.3031   34.3408 H           1 B69       0.0558
     46 H18        19.6447   48.0903   32.5692 H           1 B69       0.0427
     47 H19        20.0906   47.1126   33.9555 H           1 B69       0.0427
     48 H20        21.8910   49.1944   32.6246 H           1 B69       0.0288
     49 H21        21.8505   47.4772   32.2052 H           1 B69       0.0288
     50 H22        22.5275   46.9648   34.6065 H           1 B69       0.0298
     51 H23        22.8729   48.6785   34.8257 H           1 B69       0.0298
     52 H24        24.2008   46.7713   32.8383 H           1 B69       0.0695
@<TRIPOS>BOND
     1     1     2   1
     2     2     3   1
     3     3     4   1
     4     4     5   1
     5     5     6  ar
     6     5     8  ar
     7     6     7  ar
     8     7    10  ar
     9     8     9  ar
    10     9    10  ar
    11    10    11   1
    12    11    12  ar
    13    11    14  ar
    14    12    13  ar
    15    13    16  ar
    16    14    15  ar
    17    15    16  ar
    18    16    17   1
    19    17    18   1
    20    18    19   1
    21    19    20   1
    22    20    21   1
    23    20    25   1
    24    21    22  ar
    25    21    23  ar
    26    21    24  ar
    27    25    26  ar
    28    25    27  ar
    29    25    28  ar
    30     1    29   1
    31     1    30   1
    32     1    31   1
    33     2    32   1
    34     2    33   1
    35     3    34   1
    36     3    35   1
    37     4    36   1
    38     4    37   1
    39     6    38   1
    40     7    39   1
    41     8    40   1
    42     9    41   1
    43    12    42   1
    44    13    43   1
    45    14    44   1
    46    15    45   1
    47    17    46   1
    48    17    47   1
    49    18    48   1
    50    18    49   1
    51    19    50   1
    52    19    51   1
    53    20    52   1
@<TRIPOS>SUBSTRUCTURE
     1  B69      1

