@<TRIPOS>MOLECULE
2zcr_ligand_056
    52    53
SMALL
GAST_HUCK
****
This file was generated by PARSER (from files_GN.cpp)

@<TRIPOS>ATOM
      1 CAA         7.3214   59.1193   38.4920 C.3         1 B69      -0.0651
      2 CAP         8.6700   59.5978   37.9242 C.3         1 B69      -0.0541
      3 CAQ         8.7469   61.1433   37.7222 C.3         1 B69      -0.0435
      4 CAS        10.1091   61.7465   37.2444 C.3         1 B69      -0.0191
      5 CAV        11.3137   60.9212   37.5245 C.ar        1 B69      -0.0429
      6 CAI        11.7564   60.6892   38.8421 C.ar        1 B69      -0.0600
      7 CAM        12.7699   59.7532   39.1037 C.ar        1 B69      -0.0616
      8 CAH        11.9847   60.2745   36.4718 C.ar        1 B69      -0.0600
      9 CAL        13.0462   59.3987   36.7401 C.ar        1 B69      -0.0616
     10 CAX        13.4488   59.0526   38.0650 C.ar        1 B69      -0.0283
     11 CAY        14.4507   58.0212   38.3297 C.ar        1 B69      -0.0283
     12 CAO        15.0151   57.8048   39.6229 C.ar        1 B69      -0.0616
     13 CAK        15.9415   56.7836   39.8786 C.ar        1 B69      -0.0600
     14 CAN        14.9098   57.1402   37.3098 C.ar        1 B69      -0.0616
     15 CAJ        15.8822   56.1610   37.5398 C.ar        1 B69      -0.0600
     16 CAW        16.3866   55.9551   38.8363 C.ar        1 B69      -0.0429
     17 CAT        17.4280   54.9237   39.0598 C.3         1 B69      -0.0190
     18 CAR        16.9696   53.4753   38.7221 C.3         1 B69      -0.0402
     19 CAU        18.0485   52.3726   38.9208 C.3         1 B69      -0.0165
     20 CAZ        19.0925   52.0693   37.7979 C.3         1 B69       0.1121
     21 PBA        20.1166   53.3136   37.3645 P.3         1 B69       0.0795
     22 OAC        20.6201   53.9971   38.5280 O.co2       1 B69      -0.5610
     23 OAD        21.2768   52.8074   36.6762 O.co2       1 B69      -0.5610
     24 OAB        19.5239   54.2579   36.4594 O.co2       1 B69      -0.5610
     25 SBB        18.3398   51.2983   36.3340 S.o2        1 B69      -0.1731
     26 OAG        17.3533   52.3965   35.4936 O.co2       1 B69      -0.4830
     27 OAF        17.4193   49.9593   36.8012 O.co2       1 B69      -0.4830
     28 OAE        19.5545   50.7685   35.2841 O.co2       1 B69      -0.4830
     29 H1          7.3735   58.0450   38.6627 H           1 B69       0.0230
     30 H2          6.5216   59.3349   37.7832 H           1 B69       0.0230
     31 H3          7.1168   59.6172   39.4403 H           1 B69       0.0230
     32 H4          8.8642   59.1005   36.9656 H           1 B69       0.0264
     33 H5          9.4265   59.2697   38.6393 H           1 B69       0.0264
     34 H6          8.4761   61.6191   38.6686 H           1 B69       0.0287
     35 H7          7.9687   61.4135   37.0039 H           1 B69       0.0287
     36 H8         10.2530   62.7279   37.7099 H           1 B69       0.0427
     37 H9         10.0476   61.9383   36.1742 H           1 B69       0.0427
     38 H10        11.2786   61.1436   39.6248 H           1 B69       0.0558
     39 H11        12.9820   59.5999   40.0806 H           1 B69       0.0600
     40 H12        11.6899   60.3929   35.5002 H           1 B69       0.0558
     41 H13        13.5084   59.0078   35.9158 H           1 B69       0.0600
     42 H14        14.7739   58.3813   40.4198 H           1 B69       0.0600
     43 H15        16.2879   56.6462   40.8302 H           1 B69       0.0558
     44 H16        14.5597   57.1721   36.3556 H           1 B69       0.0600
     45 H17        16.2023   55.5938   36.7510 H           1 B69       0.0558
     46 H18        17.7908   54.9490   40.0976 H           1 B69       0.0427
     47 H19        18.2625   55.2297   38.4345 H           1 B69       0.0427
     48 H20        16.6014   53.4311   37.7050 H           1 B69       0.0288
     49 H21        16.1268   53.2526   39.3854 H           1 B69       0.0288
     50 H22        17.4981   51.4456   39.1106 H           1 B69       0.0298
     51 H23        18.5821   52.5905   39.8522 H           1 B69       0.0298
     52 H24        19.7416   51.2953   38.2121 H           1 B69       0.0695
@<TRIPOS>BOND
     1     1     2   1
     2     2     3   1
     3     3     4   1
     4     4     5   1
     5     5     6  ar
     6     5     8  ar
     7     6     7  ar
     8     7    10  ar
     9     8     9  ar
    10     9    10  ar
    11    10    11   1
    12    11    12  ar
    13    11    14  ar
    14    12    13  ar
    15    13    16  ar
    16    14    15  ar
    17    15    16  ar
    18    16    17   1
    19    17    18   1
    20    18    19   1
    21    19    20   1
    22    20    21   1
    23    20    25   1
    24    21    22  ar
    25    21    23  ar
    26    21    24  ar
    27    25    26  ar
    28    25    27  ar
    29    25    28  ar
    30     1    29   1
    31     1    30   1
    32     1    31   1
    33     2    32   1
    34     2    33   1
    35     3    34   1
    36     3    35   1
    37     4    36   1
    38     4    37   1
    39     6    38   1
    40     7    39   1
    41     8    40   1
    42     9    41   1
    43    12    42   1
    44    13    43   1
    45    14    44   1
    46    15    45   1
    47    17    46   1
    48    17    47   1
    49    18    48   1
    50    18    49   1
    51    19    50   1
    52    19    51   1
    53    20    52   1
@<TRIPOS>SUBSTRUCTURE
     1  B69      1

