@<TRIPOS>MOLECULE
2zcr_ligand_033
    52    53
SMALL
GAST_HUCK
****
This file was generated by PARSER (from files_GN.cpp)

@<TRIPOS>ATOM
      1 CAA        12.4556   55.5731   43.0476 C.3         1 B69      -0.0651
      2 CAP        12.9913   56.9972   42.7586 C.3         1 B69      -0.0541
      3 CAQ        14.3404   56.9954   41.9811 C.3         1 B69      -0.0435
      4 CAS        14.1842   57.1667   40.4356 C.3         1 B69      -0.0191
      5 CAV        15.1129   56.3222   39.6369 C.ar        1 B69      -0.0429
      6 CAI        14.9721   54.9153   39.6611 C.ar        1 B69      -0.0600
      7 CAM        15.8038   54.0964   38.8819 C.ar        1 B69      -0.0616
      8 CAH        16.1098   56.8910   38.8142 C.ar        1 B69      -0.0600
      9 CAL        16.9578   56.0727   38.0466 C.ar        1 B69      -0.0616
     10 CAX        16.8081   54.6689   38.0722 C.ar        1 B69      -0.0283
     11 CAY        17.6509   53.8348   37.3030 C.ar        1 B69      -0.0283
     12 CAO        17.1489   53.1591   36.1675 C.ar        1 B69      -0.0616
     13 CAK        17.9838   52.3072   35.4188 C.ar        1 B69      -0.0600
     14 CAN        18.9991   53.6458   37.6744 C.ar        1 B69      -0.0616
     15 CAJ        19.8275   52.7843   36.9314 C.ar        1 B69      -0.0600
     16 CAW        19.3330   52.1011   35.7961 C.ar        1 B69      -0.0429
     17 CAT        20.2509   51.2495   34.9879 C.3         1 B69      -0.0190
     18 CAR        20.6659   49.9149   35.6742 C.3         1 B69      -0.0402
     19 CAU        22.0480   49.3591   35.2152 C.3         1 B69      -0.0165
     20 CAZ        22.1631   48.9743   33.6993 C.3         1 B69       0.1121
     21 PBA        21.4912   47.4950   33.3226 P.3         1 B69       0.0795
     22 OAC        20.0757   47.6141   33.0581 O.co2       1 B69      -0.5610
     23 OAD        22.0634   46.9271   32.1218 O.co2       1 B69      -0.5610
     24 OAB        21.6916   46.5065   34.3559 O.co2       1 B69      -0.5610
     25 SBB        23.8715   49.1034   33.0848 S.o2        1 B69      -0.1731
     26 OAG        24.7277   50.2952   33.9290 O.co2       1 B69      -0.4830
     27 OAF        23.8201   49.5465   31.4544 O.co2       1 B69      -0.4830
     28 OAE        24.6945   47.6313   33.2320 O.co2       1 B69      -0.4830
     29 H1         11.4268   55.6260   43.4058 H           1 B69       0.0230
     30 H2         13.0601   55.0969   43.8189 H           1 B69       0.0230
     31 H3         12.4769   54.9548   42.1510 H           1 B69       0.0230
     32 H4         13.1297   57.4975   43.7213 H           1 B69       0.0264
     33 H5         12.2363   57.5641   42.2037 H           1 B69       0.0264
     34 H6         14.8859   56.0825   42.2202 H           1 B69       0.0287
     35 H7         14.9631   57.8133   42.3488 H           1 B69       0.0287
     36 H8         14.3213   58.2261   40.1947 H           1 B69       0.0427
     37 H9         13.1656   56.9194   40.1173 H           1 B69       0.0427
     38 H10        14.2521   54.4790   40.2411 H           1 B69       0.0558
     39 H11        15.6792   53.0809   38.9186 H           1 B69       0.0600
     40 H12        16.2288   57.9059   38.7691 H           1 B69       0.0558
     41 H13        17.6711   56.5079   37.4534 H           1 B69       0.0600
     42 H14        16.1777   53.2948   35.8682 H           1 B69       0.0600
     43 H15        17.5995   51.8428   34.5938 H           1 B69       0.0558
     44 H16        19.3834   54.1234   38.4962 H           1 B69       0.0600
     45 H17        20.8021   52.6699   37.2203 H           1 B69       0.0558
     46 H18        21.1380   51.8499   34.7648 H           1 B69       0.0427
     47 H19        19.7908   51.0094   34.0248 H           1 B69       0.0427
     48 H20        19.8855   49.1676   35.5018 H           1 B69       0.0288
     49 H21        20.7325   50.0636   36.7537 H           1 B69       0.0288
     50 H22        22.3092   48.4976   35.8423 H           1 B69       0.0298
     51 H23        22.7753   50.1410   35.4455 H           1 B69       0.0298
     52 H24        21.6182   49.7139   33.1163 H           1 B69       0.0695
@<TRIPOS>BOND
     1     1     2   1
     2     2     3   1
     3     3     4   1
     4     4     5   1
     5     5     6  ar
     6     5     8  ar
     7     6     7  ar
     8     7    10  ar
     9     8     9  ar
    10     9    10  ar
    11    10    11   1
    12    11    12  ar
    13    11    14  ar
    14    12    13  ar
    15    13    16  ar
    16    14    15  ar
    17    15    16  ar
    18    16    17   1
    19    17    18   1
    20    18    19   1
    21    19    20   1
    22    20    21   1
    23    20    25   1
    24    21    22  ar
    25    21    23  ar
    26    21    24  ar
    27    25    26  ar
    28    25    27  ar
    29    25    28  ar
    30     1    29   1
    31     1    30   1
    32     1    31   1
    33     2    32   1
    34     2    33   1
    35     3    34   1
    36     3    35   1
    37     4    36   1
    38     4    37   1
    39     6    38   1
    40     7    39   1
    41     8    40   1
    42     9    41   1
    43    12    42   1
    44    13    43   1
    45    14    44   1
    46    15    45   1
    47    17    46   1
    48    17    47   1
    49    18    48   1
    50    18    49   1
    51    19    50   1
    52    19    51   1
    53    20    52   1
@<TRIPOS>SUBSTRUCTURE
     1  B69      1

