@<TRIPOS>MOLECULE
2zcr_ligand_030
    52    53
SMALL
GAST_HUCK
****
This file was generated by PARSER (from files_GN.cpp)

@<TRIPOS>ATOM
      1 CAA        24.4640   50.0475   35.6918 C.3         1 B69      -0.0651
      2 CAP        23.8621   49.3527   36.9319 C.3         1 B69      -0.0541
      3 CAQ        23.9354   50.1628   38.2621 C.3         1 B69      -0.0435
      4 CAS        23.6560   51.6966   38.2326 C.3         1 B69      -0.0191
      5 CAV        22.3190   52.2261   37.8432 C.ar        1 B69      -0.0429
      6 CAI        21.1831   51.4198   37.5987 C.ar        1 B69      -0.0600
      7 CAM        19.9589   51.9911   37.2061 C.ar        1 B69      -0.0616
      8 CAH        22.1658   53.6293   37.7462 C.ar        1 B69      -0.0600
      9 CAL        20.9417   54.2040   37.3597 C.ar        1 B69      -0.0616
     10 CAX        19.8215   53.3907   37.0757 C.ar        1 B69      -0.0283
     11 CAY        18.5777   53.9532   36.6963 C.ar        1 B69      -0.0283
     12 CAO        18.4722   54.8147   35.5799 C.ar        1 B69      -0.0616
     13 CAK        17.2240   55.3318   35.1901 C.ar        1 B69      -0.0600
     14 CAN        17.4088   53.6420   37.4274 C.ar        1 B69      -0.0616
     15 CAJ        16.1643   54.1673   37.0457 C.ar        1 B69      -0.0600
     16 CAW        16.0502   55.0095   35.9143 C.ar        1 B69      -0.0429
     17 CAT        14.7258   55.5855   35.5526 C.3         1 B69      -0.0190
     18 CAR        14.4211   56.8732   36.3775 C.3         1 B69      -0.0402
     19 CAU        12.9089   57.0852   36.6739 C.3         1 B69      -0.0165
     20 CAZ        12.5455   58.2345   37.6685 C.3         1 B69       0.1121
     21 PBA        12.7288   59.8014   37.0739 P.3         1 B69       0.0795
     22 OAC        13.4207   60.7254   37.9392 O.co2       1 B69      -0.5610
     23 OAD        13.3595   59.8800   35.7864 O.co2       1 B69      -0.5610
     24 OAB        11.4302   60.4011   36.8663 O.co2       1 B69      -0.5610
     25 SBB        13.2798   57.9901   39.3188 S.o2        1 B69      -0.1731
     26 OAG        13.4076   56.3386   39.6649 O.co2       1 B69      -0.4830
     27 OAF        12.2770   58.7018   40.4784 O.co2       1 B69      -0.4830
     28 OAE        14.8242   58.6784   39.4088 O.co2       1 B69      -0.4830
     29 H1         24.4752   49.3545   34.8496 H           1 B69       0.0230
     30 H2         25.4873   50.3709   35.8889 H           1 B69       0.0230
     31 H3         23.8621   50.9145   35.4127 H           1 B69       0.0230
     32 H4         24.4006   48.4124   37.0838 H           1 B69       0.0264
     33 H5         22.8272   49.0915   36.7074 H           1 B69       0.0264
     34 H6         24.9504   50.0377   38.6607 H           1 B69       0.0287
     35 H7         23.2584   49.6978   38.9847 H           1 B69       0.0287
     36 H8         24.4007   52.1445   37.5693 H           1 B69       0.0427
     37 H9         23.8674   52.0773   39.2367 H           1 B69       0.0427
     38 H10        21.2241   50.4046   37.7070 H           1 B69       0.0558
     39 H11        19.1704   51.3637   37.0099 H           1 B69       0.0600
     40 H12        22.9512   54.2519   37.9483 H           1 B69       0.0558
     41 H13        20.8646   55.2237   37.3026 H           1 B69       0.0600
     42 H14        19.2996   55.0521   35.0248 H           1 B69       0.0600
     43 H15        17.1724   55.9577   34.3781 H           1 B69       0.0558
     44 H16        17.4537   53.0329   38.2484 H           1 B69       0.0600
     45 H17        15.3357   53.9394   37.6041 H           1 B69       0.0558
     46 H18        13.9608   54.8221   35.7188 H           1 B69       0.0427
     47 H19        14.6921   55.8319   34.4870 H           1 B69       0.0427
     48 H20        14.8159   57.7356   35.8303 H           1 B69       0.0288
     49 H21        14.9556   56.8264   37.3296 H           1 B69       0.0288
     50 H22        12.5129   56.1596   37.0933 H           1 B69       0.0298
     51 H23        12.3840   57.2440   35.7307 H           1 B69       0.0298
     52 H24        11.4756   58.1193   37.8524 H           1 B69       0.0695
@<TRIPOS>BOND
     1     1     2   1
     2     2     3   1
     3     3     4   1
     4     4     5   1
     5     5     6  ar
     6     5     8  ar
     7     6     7  ar
     8     7    10  ar
     9     8     9  ar
    10     9    10  ar
    11    10    11   1
    12    11    12  ar
    13    11    14  ar
    14    12    13  ar
    15    13    16  ar
    16    14    15  ar
    17    15    16  ar
    18    16    17   1
    19    17    18   1
    20    18    19   1
    21    19    20   1
    22    20    21   1
    23    20    25   1
    24    21    22  ar
    25    21    23  ar
    26    21    24  ar
    27    25    26  ar
    28    25    27  ar
    29    25    28  ar
    30     1    29   1
    31     1    30   1
    32     1    31   1
    33     2    32   1
    34     2    33   1
    35     3    34   1
    36     3    35   1
    37     4    36   1
    38     4    37   1
    39     6    38   1
    40     7    39   1
    41     8    40   1
    42     9    41   1
    43    12    42   1
    44    13    43   1
    45    14    44   1
    46    15    45   1
    47    17    46   1
    48    17    47   1
    49    18    48   1
    50    18    49   1
    51    19    50   1
    52    19    51   1
    53    20    52   1
@<TRIPOS>SUBSTRUCTURE
     1  B69      1

