@<TRIPOS>MOLECULE
2zcr_ligand_010
    52    53
SMALL
GAST_HUCK
****
This file was generated by PARSER (from files_GN.cpp)

@<TRIPOS>ATOM
      1 CAA        16.7855   52.5847   39.6629 C.3         1 B69      -0.0651
      2 CAP        17.0644   52.0070   38.2564 C.3         1 B69      -0.0541
      3 CAQ        18.5729   51.9396   37.8793 C.3         1 B69      -0.0435
      4 CAS        19.1860   53.2718   37.3344 C.3         1 B69      -0.0191
      5 CAV        20.3160   53.7774   38.1616 C.ar        1 B69      -0.0429
      6 CAI        21.6512   53.4058   37.8816 C.ar        1 B69      -0.0600
      7 CAM        22.7089   53.8689   38.6859 C.ar        1 B69      -0.0616
      8 CAH        20.0692   54.6197   39.2676 C.ar        1 B69      -0.0600
      9 CAL        21.1246   55.0869   40.0671 C.ar        1 B69      -0.0616
     10 CAX        22.4630   54.7151   39.7939 C.ar        1 B69      -0.0283
     11 CAY        23.5352   55.2100   40.5888 C.ar        1 B69      -0.0283
     12 CAO        23.5915   56.5762   40.9554 C.ar        1 B69      -0.0616
     13 CAK        24.6717   57.0816   41.6973 C.ar        1 B69      -0.0600
     14 CAN        24.5878   54.3602   41.0075 C.ar        1 B69      -0.0616
     15 CAJ        25.6598   54.8635   41.7631 C.ar        1 B69      -0.0600
     16 CAW        25.7208   56.2330   42.1142 C.ar        1 B69      -0.0429
     17 CAT        26.8899   56.7918   42.8409 C.3         1 B69      -0.0190
     18 CAR        26.5596   57.3138   44.2702 C.3         1 B69      -0.0402
     19 CAU        27.7273   58.1034   44.9299 C.3         1 B69      -0.0165
     20 CAZ        29.0235   57.2978   45.2871 C.3         1 B69       0.1121
     21 PBA        28.9102   56.3651   46.6707 P.3         1 B69       0.0795
     22 OAC        27.7492   55.5124   46.6887 O.co2       1 B69      -0.5610
     23 OAD        30.0444   55.4843   46.7773 O.co2       1 B69      -0.5610
     24 OAB        28.8695   57.1542   47.8752 O.co2       1 B69      -0.5610
     25 SBB        30.4681   58.4071   45.3330 S.o2        1 B69      -0.1731
     26 OAG        31.3201   58.2360   43.8806 O.co2       1 B69      -0.4830
     27 OAF        31.5098   58.0602   46.6189 O.co2       1 B69      -0.4830
     28 OAE        29.9771   60.0186   45.4825 O.co2       1 B69      -0.4830
     29 H1         15.7086   52.6151   39.8384 H           1 B69       0.0230
     30 H2         17.1779   53.5969   39.7549 H           1 B69       0.0230
     31 H3         17.2429   51.9549   40.4286 H           1 B69       0.0230
     32 H4         16.5236   52.5986   37.5121 H           1 B69       0.0264
     33 H5         16.6547   50.9936   38.2268 H           1 B69       0.0264
     34 H6         18.6850   51.1747   37.1040 H           1 B69       0.0287
     35 H7         19.1301   51.5740   38.7476 H           1 B69       0.0287
     36 H8         18.4210   54.0500   37.2618 H           1 B69       0.0427
     37 H9         19.5329   53.1139   36.3079 H           1 B69       0.0427
     38 H10        21.8635   52.7938   37.0897 H           1 B69       0.0558
     39 H11        23.6660   53.5974   38.4421 H           1 B69       0.0600
     40 H12        19.1152   54.8978   39.5032 H           1 B69       0.0558
     41 H13        20.9054   55.6904   40.8618 H           1 B69       0.0600
     42 H14        22.8591   57.2254   40.6573 H           1 B69       0.0600
     43 H15        24.6980   58.0805   41.9151 H           1 B69       0.0558
     44 H16        24.5762   53.3630   40.7723 H           1 B69       0.0600
     45 H17        26.4030   54.2219   42.0496 H           1 B69       0.0558
     46 H18        27.3025   57.6082   42.2402 H           1 B69       0.0427
     47 H19        27.6680   56.0324   42.9174 H           1 B69       0.0427
     48 H20        26.2641   56.4757   44.9017 H           1 B69       0.0288
     49 H21        25.7034   57.9951   44.2146 H           1 B69       0.0288
     50 H22        27.3513   58.6066   45.8275 H           1 B69       0.0298
     51 H23        27.9762   58.8973   44.2214 H           1 B69       0.0298
     52 H24        29.2311   56.6017   44.4771 H           1 B69       0.0695
@<TRIPOS>BOND
     1     1     2   1
     2     2     3   1
     3     3     4   1
     4     4     5   1
     5     5     6  ar
     6     5     8  ar
     7     6     7  ar
     8     7    10  ar
     9     8     9  ar
    10     9    10  ar
    11    10    11   1
    12    11    12  ar
    13    11    14  ar
    14    12    13  ar
    15    13    16  ar
    16    14    15  ar
    17    15    16  ar
    18    16    17   1
    19    17    18   1
    20    18    19   1
    21    19    20   1
    22    20    21   1
    23    20    25   1
    24    21    22  ar
    25    21    23  ar
    26    21    24  ar
    27    25    26  ar
    28    25    27  ar
    29    25    28  ar
    30     1    29   1
    31     1    30   1
    32     1    31   1
    33     2    32   1
    34     2    33   1
    35     3    34   1
    36     3    35   1
    37     4    36   1
    38     4    37   1
    39     6    38   1
    40     7    39   1
    41     8    40   1
    42     9    41   1
    43    12    42   1
    44    13    43   1
    45    14    44   1
    46    15    45   1
    47    17    46   1
    48    17    47   1
    49    18    48   1
    50    18    49   1
    51    19    50   1
    52    19    51   1
    53    20    52   1
@<TRIPOS>SUBSTRUCTURE
     1  B69      1

