@<TRIPOS>MOLECULE
2zcr_ligand_028
    52    53
SMALL
GAST_HUCK
****
This file was generated by PARSER (from files_GN.cpp)

@<TRIPOS>ATOM
      1 CAA        24.2761   48.1271   38.2205 C.3         1 B69      -0.0651
      2 CAP        23.7721   49.3735   38.9841 C.3         1 B69      -0.0541
      3 CAQ        24.7688   50.5661   38.9806 C.3         1 B69      -0.0435
      4 CAS        24.8058   51.4116   37.6760 C.3         1 B69      -0.0191
      5 CAV        23.5144   52.0729   37.3399 C.ar        1 B69      -0.0429
      6 CAI        22.8880   51.8746   36.0897 C.ar        1 B69      -0.0600
      7 CAM        21.6595   52.4943   35.7960 C.ar        1 B69      -0.0616
      8 CAH        22.8865   52.9227   38.2797 C.ar        1 B69      -0.0600
      9 CAL        21.6577   53.5402   37.9873 C.ar        1 B69      -0.0616
     10 CAX        21.0222   53.3317   36.7421 C.ar        1 B69      -0.0283
     11 CAY        19.7738   53.9557   36.4442 C.ar        1 B69      -0.0283
     12 CAO        19.5988   55.3468   36.6337 C.ar        1 B69      -0.0616
     13 CAK        18.3770   55.9729   36.3248 C.ar        1 B69      -0.0600
     14 CAN        18.6872   53.2166   35.9214 C.ar        1 B69      -0.0616
     15 CAJ        17.4608   53.8414   35.6240 C.ar        1 B69      -0.0600
     16 CAW        17.2742   55.2260   35.8465 C.ar        1 B69      -0.0429
     17 CAT        15.9910   55.8923   35.4723 C.3         1 B69      -0.0190
     18 CAR        15.4051   56.9531   36.4665 C.3         1 B69      -0.0402
     19 CAU        14.1633   56.5651   37.3409 C.3         1 B69      -0.0165
     20 CAZ        14.3655   56.1101   38.8247 C.3         1 B69       0.1121
     21 PBA        14.8398   57.2975   39.9019 P.3         1 B69       0.0795
     22 OAC        15.9486   58.1027   39.4584 O.co2       1 B69      -0.5610
     23 OAD        13.7443   58.1920   40.1821 O.co2       1 B69      -0.5610
     24 OAB        15.2140   56.7365   41.1764 O.co2       1 B69      -0.5610
     25 SBB        15.3534   54.5925   38.9911 S.o2        1 B69      -0.1731
     26 OAG        15.3913   53.7375   37.5299 O.co2       1 B69      -0.4830
     27 OAF        14.6203   53.6048   40.1596 O.co2       1 B69      -0.4830
     28 OAE        16.9408   54.9449   39.4693 O.co2       1 B69      -0.4830
     29 H1         23.5560   47.3131   38.3258 H           1 B69       0.0230
     30 H2         25.2335   47.7962   38.6272 H           1 B69       0.0230
     31 H3         24.3966   48.3473   37.1591 H           1 B69       0.0230
     32 H4         23.5904   49.0815   40.0220 H           1 B69       0.0264
     33 H5         22.8129   49.6874   38.5627 H           1 B69       0.0264
     34 H6         25.7712   50.1838   39.1764 H           1 B69       0.0287
     35 H7         24.5150   51.2242   39.8168 H           1 B69       0.0287
     36 H8         25.1351   50.7673   36.8535 H           1 B69       0.0427
     37 H9         25.5713   52.1838   37.7865 H           1 B69       0.0427
     38 H10        23.3244   51.2840   35.3847 H           1 B69       0.0558
     39 H11        21.2417   52.3374   34.8736 H           1 B69       0.0600
     40 H12        23.3218   53.1043   39.1897 H           1 B69       0.0558
     41 H13        21.2222   54.1331   38.6977 H           1 B69       0.0600
     42 H14        20.3677   55.9243   36.9872 H           1 B69       0.0600
     43 H15        18.3084   56.9850   36.4322 H           1 B69       0.0558
     44 H16        18.7767   52.2093   35.7645 H           1 B69       0.0600
     45 H17        16.7139   53.2784   35.2104 H           1 B69       0.0558
     46 H18        15.2141   55.1590   35.2512 H           1 B69       0.0427
     47 H19        16.2021   56.4021   34.5298 H           1 B69       0.0427
     48 H20        15.0844   57.7995   35.8486 H           1 B69       0.0288
     49 H21        16.1963   57.3390   37.1079 H           1 B69       0.0288
     50 H22        13.5865   55.8006   36.8142 H           1 B69       0.0298
     51 H23        13.5080   57.4413   37.3811 H           1 B69       0.0298
     52 H24        13.3673   55.8170   39.1730 H           1 B69       0.0695
@<TRIPOS>BOND
     1     1     2   1
     2     2     3   1
     3     3     4   1
     4     4     5   1
     5     5     6  ar
     6     5     8  ar
     7     6     7  ar
     8     7    10  ar
     9     8     9  ar
    10     9    10  ar
    11    10    11   1
    12    11    12  ar
    13    11    14  ar
    14    12    13  ar
    15    13    16  ar
    16    14    15  ar
    17    15    16  ar
    18    16    17   1
    19    17    18   1
    20    18    19   1
    21    19    20   1
    22    20    21   1
    23    20    25   1
    24    21    22  ar
    25    21    23  ar
    26    21    24  ar
    27    25    26  ar
    28    25    27  ar
    29    25    28  ar
    30     1    29   1
    31     1    30   1
    32     1    31   1
    33     2    32   1
    34     2    33   1
    35     3    34   1
    36     3    35   1
    37     4    36   1
    38     4    37   1
    39     6    38   1
    40     7    39   1
    41     8    40   1
    42     9    41   1
    43    12    42   1
    44    13    43   1
    45    14    44   1
    46    15    45   1
    47    17    46   1
    48    17    47   1
    49    18    48   1
    50    18    49   1
    51    19    50   1
    52    19    51   1
    53    20    52   1
@<TRIPOS>SUBSTRUCTURE
     1  B69      1

