@<TRIPOS>MOLECULE
2zcr_ligand_025
    52    53
SMALL
GAST_HUCK
****
This file was generated by PARSER (from files_GN.cpp)

@<TRIPOS>ATOM
      1 CAA        10.9143   61.5403   39.4857 C.3         1 B69      -0.0651
      2 CAP         9.5557   61.3841   38.7662 C.3         1 B69      -0.0541
      3 CAQ         9.6644   61.0533   37.2476 C.3         1 B69      -0.0435
      4 CAS         9.7289   59.5379   36.8933 C.3         1 B69      -0.0191
      5 CAV        11.0454   58.8701   37.0844 C.ar        1 B69      -0.0429
      6 CAI        11.1782   57.7486   37.9269 C.ar        1 B69      -0.0600
      7 CAM        12.3925   57.0337   38.0016 C.ar        1 B69      -0.0616
      8 CAH        12.1788   59.2877   36.3451 C.ar        1 B69      -0.0600
      9 CAL        13.3921   58.5782   36.4231 C.ar        1 B69      -0.0616
     10 CAX        13.5178   57.4224   37.2354 C.ar        1 B69      -0.0283
     11 CAY        14.7389   56.6715   37.2613 C.ar        1 B69      -0.0283
     12 CAO        15.4238   56.3455   36.0688 C.ar        1 B69      -0.0616
     13 CAK        16.6414   55.6353   36.0977 C.ar        1 B69      -0.0600
     14 CAN        15.3150   56.2574   38.4901 C.ar        1 B69      -0.0616
     15 CAJ        16.5345   55.5552   38.5170 C.ar        1 B69      -0.0600
     16 CAW        17.2145   55.2250   37.3199 C.ar        1 B69      -0.0429
     17 CAT        18.5130   54.4815   37.3362 C.3         1 B69      -0.0190
     18 CAR        18.4639   53.0710   36.6469 C.3         1 B69      -0.0402
     19 CAU        19.1065   51.8949   37.4550 C.3         1 B69      -0.0165
     20 CAZ        20.6228   51.5555   37.2556 C.3         1 B69       0.1121
     21 PBA        21.6769   52.8413   37.3125 P.3         1 B69       0.0795
     22 OAC        23.0475   52.4059   37.4008 O.co2       1 B69      -0.5610
     23 OAD        21.5995   53.6683   36.1300 O.co2       1 B69      -0.5610
     24 OAB        21.4518   53.7048   38.4456 O.co2       1 B69      -0.5610
     25 SBB        20.9692   50.4900   35.8168 S.o2        1 B69      -0.1731
     26 OAG        21.4831   51.3821   34.4746 O.co2       1 B69      -0.4830
     27 OAF        19.5918   49.6108   35.3806 O.co2       1 B69      -0.4830
     28 OAE        22.1878   49.3941   36.2361 O.co2       1 B69      -0.4830
     29 H1         10.7486   61.7597   40.5412 H           1 B69       0.0230
     30 H2         11.4869   62.3603   39.0445 H           1 B69       0.0230
     31 H3         11.5012   60.6230   39.4144 H           1 B69       0.0230
     32 H4          9.0178   62.3332   38.8777 H           1 B69       0.0264
     33 H5          8.9685   60.6147   39.2723 H           1 B69       0.0264
     34 H6         10.5046   61.5943   36.8031 H           1 B69       0.0287
     35 H7          8.7652   61.4544   36.7692 H           1 B69       0.0287
     36 H8          9.4760   59.4335   35.8393 H           1 B69       0.0427
     37 H9          8.9414   59.0249   37.4475 H           1 B69       0.0427
     38 H10        10.3770   57.4059   38.4658 H           1 B69       0.0558
     39 H11        12.4350   56.2045   38.5983 H           1 B69       0.0600
     40 H12        12.1137   60.0857   35.7046 H           1 B69       0.0558
     41 H13        14.1792   58.9096   35.8574 H           1 B69       0.0600
     42 H14        15.0362   56.6048   35.1591 H           1 B69       0.0600
     43 H15        17.1016   55.4178   35.2095 H           1 B69       0.0558
     44 H16        14.8681   56.4800   39.3809 H           1 B69       0.0600
     45 H17        16.9235   55.2747   39.4239 H           1 B69       0.0558
     46 H18        18.8476   54.3822   38.3742 H           1 B69       0.0427
     47 H19        19.2680   55.0983   36.8394 H           1 B69       0.0427
     48 H20        18.9275   53.1443   35.6530 H           1 B69       0.0288
     49 H21        17.4120   52.7996   36.4757 H           1 B69       0.0288
     50 H22        18.5412   50.9941   37.2102 H           1 B69       0.0298
     51 H23        18.9433   52.0785   38.5258 H           1 B69       0.0298
     52 H24        20.8934   50.9338   38.1090 H           1 B69       0.0695
@<TRIPOS>BOND
     1     1     2   1
     2     2     3   1
     3     3     4   1
     4     4     5   1
     5     5     6  ar
     6     5     8  ar
     7     6     7  ar
     8     7    10  ar
     9     8     9  ar
    10     9    10  ar
    11    10    11   1
    12    11    12  ar
    13    11    14  ar
    14    12    13  ar
    15    13    16  ar
    16    14    15  ar
    17    15    16  ar
    18    16    17   1
    19    17    18   1
    20    18    19   1
    21    19    20   1
    22    20    21   1
    23    20    25   1
    24    21    22  ar
    25    21    23  ar
    26    21    24  ar
    27    25    26  ar
    28    25    27  ar
    29    25    28  ar
    30     1    29   1
    31     1    30   1
    32     1    31   1
    33     2    32   1
    34     2    33   1
    35     3    34   1
    36     3    35   1
    37     4    36   1
    38     4    37   1
    39     6    38   1
    40     7    39   1
    41     8    40   1
    42     9    41   1
    43    12    42   1
    44    13    43   1
    45    14    44   1
    46    15    45   1
    47    17    46   1
    48    17    47   1
    49    18    48   1
    50    18    49   1
    51    19    50   1
    52    19    51   1
    53    20    52   1
@<TRIPOS>SUBSTRUCTURE
     1  B69      1

