@<TRIPOS>MOLECULE
2zcr_ligand_041
    52    53
SMALL
GAST_HUCK
****
This file was generated by PARSER (from files_GN.cpp)

@<TRIPOS>ATOM
      1 CAA        11.6815   58.5483   36.5714 C.3         1 B69      -0.0651
      2 CAP        11.8845   57.6378   37.8065 C.3         1 B69      -0.0541
      3 CAQ        12.1414   58.4578   39.1026 C.3         1 B69      -0.0435
      4 CAS        13.1998   57.8619   40.0781 C.3         1 B69      -0.0191
      5 CAV        14.3743   57.1671   39.4766 C.ar        1 B69      -0.0429
      6 CAI        14.6684   55.8268   39.8248 C.ar        1 B69      -0.0600
      7 CAM        15.7942   55.1749   39.2909 C.ar        1 B69      -0.0616
      8 CAH        15.2492   57.8476   38.6015 C.ar        1 B69      -0.0600
      9 CAL        16.3561   57.1845   38.0353 C.ar        1 B69      -0.0616
     10 CAX        16.6432   55.8465   38.3825 C.ar        1 B69      -0.0283
     11 CAY        17.7917   55.2088   37.8571 C.ar        1 B69      -0.0283
     12 CAO        18.0141   55.1614   36.4625 C.ar        1 B69      -0.0616
     13 CAK        19.1884   54.5771   35.9485 C.ar        1 B69      -0.0600
     14 CAN        18.7547   54.6423   38.7213 C.ar        1 B69      -0.0616
     15 CAJ        19.9357   54.0750   38.2067 C.ar        1 B69      -0.0600
     16 CAW        20.1684   54.0373   36.8145 C.ar        1 B69      -0.0429
     17 CAT        21.4217   53.4563   36.2577 C.3         1 B69      -0.0190
     18 CAR        21.2815   51.9484   35.9312 C.3         1 B69      -0.0402
     19 CAU        22.5310   51.3618   35.2232 C.3         1 B69      -0.0165
     20 CAZ        22.5713   49.8025   35.1062 C.3         1 B69       0.1121
     21 PBA        23.8109   49.2793   34.1199 P.3         1 B69       0.0795
     22 OAC        24.3504   48.0192   34.5621 O.co2       1 B69      -0.5610
     23 OAD        23.3688   49.1123   32.7537 O.co2       1 B69      -0.5610
     24 OAB        24.8835   50.2546   34.0746 O.co2       1 B69      -0.5610
     25 SBB        20.9829   49.0992   34.5629 S.o2        1 B69      -0.1731
     26 OAG        20.3919   49.9795   33.2461 O.co2       1 B69      -0.4830
     27 OAF        19.8477   49.1677   35.8146 O.co2       1 B69      -0.4830
     28 OAE        21.1761   47.4811   34.1245 O.co2       1 B69      -0.4830
     29 H1         11.6897   57.9491   35.6596 H           1 B69       0.0230
     30 H2         12.4826   59.2861   36.5007 H           1 B69       0.0230
     31 H3         10.7220   59.0670   36.6418 H           1 B69       0.0230
     32 H4         12.7470   56.9860   37.6182 H           1 B69       0.0264
     33 H5         11.0021   56.9992   37.9306 H           1 B69       0.0264
     34 H6         11.1984   58.5541   39.6499 H           1 B69       0.0287
     35 H7         12.4537   59.4645   38.8146 H           1 B69       0.0287
     36 H8         12.6713   57.1904   40.7517 H           1 B69       0.0427
     37 H9         13.5755   58.6774   40.6937 H           1 B69       0.0427
     38 H10        14.0730   55.3140   40.4816 H           1 B69       0.0558
     39 H11        15.9904   54.2084   39.5624 H           1 B69       0.0600
     40 H12        15.0777   58.8258   38.3548 H           1 B69       0.0558
     41 H13        16.9572   57.6985   37.3846 H           1 B69       0.0600
     42 H14        17.3300   55.5581   35.8109 H           1 B69       0.0600
     43 H15        19.3320   54.5645   34.9340 H           1 B69       0.0558
     44 H16        18.6209   54.6682   39.7341 H           1 B69       0.0600
     45 H17        20.6317   53.6996   38.8567 H           1 B69       0.0558
     46 H18        22.2524   53.5869   36.9580 H           1 B69       0.0427
     47 H19        21.6799   54.0109   35.3533 H           1 B69       0.0427
     48 H20        20.4195   51.8032   35.2774 H           1 B69       0.0288
     49 H21        21.1000   51.4060   36.8641 H           1 B69       0.0288
     50 H22        23.4147   51.6900   35.7836 H           1 B69       0.0298
     51 H23        22.5907   51.8087   34.2252 H           1 B69       0.0298
     52 H24        22.7616   49.4015   36.1059 H           1 B69       0.0695
@<TRIPOS>BOND
     1     1     2   1
     2     2     3   1
     3     3     4   1
     4     4     5   1
     5     5     6  ar
     6     5     8  ar
     7     6     7  ar
     8     7    10  ar
     9     8     9  ar
    10     9    10  ar
    11    10    11   1
    12    11    12  ar
    13    11    14  ar
    14    12    13  ar
    15    13    16  ar
    16    14    15  ar
    17    15    16  ar
    18    16    17   1
    19    17    18   1
    20    18    19   1
    21    19    20   1
    22    20    21   1
    23    20    25   1
    24    21    22  ar
    25    21    23  ar
    26    21    24  ar
    27    25    26  ar
    28    25    27  ar
    29    25    28  ar
    30     1    29   1
    31     1    30   1
    32     1    31   1
    33     2    32   1
    34     2    33   1
    35     3    34   1
    36     3    35   1
    37     4    36   1
    38     4    37   1
    39     6    38   1
    40     7    39   1
    41     8    40   1
    42     9    41   1
    43    12    42   1
    44    13    43   1
    45    14    44   1
    46    15    45   1
    47    17    46   1
    48    17    47   1
    49    18    48   1
    50    18    49   1
    51    19    50   1
    52    19    51   1
    53    20    52   1
@<TRIPOS>SUBSTRUCTURE
     1  B69      1

