@<TRIPOS>MOLECULE
2zcr_ligand_034
    52    53
SMALL
GAST_HUCK
****
This file was generated by PARSER (from files_GN.cpp)

@<TRIPOS>ATOM
      1 CAA        14.4562   56.0691   38.0102 C.3         1 B69      -0.0651
      2 CAP        14.0154   56.1855   36.5331 C.3         1 B69      -0.0541
      3 CAQ        15.0396   55.6664   35.4916 C.3         1 B69      -0.0435
      4 CAS        16.4567   56.3203   35.5552 C.3         1 B69      -0.0191
      5 CAV        17.6624   55.5586   36.0191 C.ar        1 B69      -0.0429
      6 CAI        17.6423   54.2792   36.6280 C.ar        1 B69      -0.0600
      7 CAM        18.8402   53.5861   36.9031 C.ar        1 B69      -0.0616
      8 CAH        18.9286   56.1330   35.7437 C.ar        1 B69      -0.0600
      9 CAL        20.1257   55.4482   36.0255 C.ar        1 B69      -0.0616
     10 CAX        20.0905   54.1586   36.5913 C.ar        1 B69      -0.0283
     11 CAY        21.2792   53.4252   36.7748 C.ar        1 B69      -0.0283
     12 CAO        22.0194   53.5213   37.9701 C.ar        1 B69      -0.0616
     13 CAK        23.1993   52.7708   38.1382 C.ar        1 B69      -0.0600
     14 CAN        21.7583   52.5961   35.7387 C.ar        1 B69      -0.0616
     15 CAJ        22.9551   51.8694   35.8959 C.ar        1 B69      -0.0600
     16 CAW        23.6882   51.9292   37.1067 C.ar        1 B69      -0.0429
     17 CAT        24.9927   51.2135   37.2595 C.3         1 B69      -0.0190
     18 CAR        25.1125   49.8553   36.5037 C.3         1 B69      -0.0402
     19 CAU        26.4498   49.0859   36.7694 C.3         1 B69      -0.0165
     20 CAZ        26.4202   47.9311   37.8261 C.3         1 B69       0.1121
     21 PBA        26.1007   48.4326   39.3851 P.3         1 B69       0.0795
     22 OAC        24.6822   48.5918   39.6026 O.co2       1 B69      -0.5610
     23 OAD        26.5753   47.5312   40.4150 O.co2       1 B69      -0.5610
     24 OAB        26.6974   49.7283   39.6373 O.co2       1 B69      -0.5610
     25 SBB        27.9936   47.0194   37.7615 S.o2        1 B69      -0.1731
     26 OAG        29.2407   47.9683   38.3986 O.co2       1 B69      -0.4830
     27 OAF        28.3718   46.6232   36.1616 O.co2       1 B69      -0.4830
     28 OAE        27.8720   45.5860   38.6488 O.co2       1 B69      -0.4830
     29 H1         13.6516   56.4108   38.6606 H           1 B69       0.0230
     30 H2         15.3378   56.6813   38.1982 H           1 B69       0.0230
     31 H3         14.6819   55.0282   38.2554 H           1 B69       0.0230
     32 H4         13.7841   57.2340   36.3199 H           1 B69       0.0264
     33 H5         13.0858   55.6208   36.4123 H           1 B69       0.0264
     34 H6         14.6142   55.8998   34.5108 H           1 B69       0.0287
     35 H7         15.1070   54.5800   35.5475 H           1 B69       0.0287
     36 H8         16.3765   57.2339   36.1551 H           1 B69       0.0427
     37 H9         16.6962   56.6503   34.5386 H           1 B69       0.0427
     38 H10        16.7500   53.8255   36.8493 H           1 B69       0.0558
     39 H11        18.7867   52.6446   37.3074 H           1 B69       0.0600
     40 H12        18.9992   57.0558   35.3021 H           1 B69       0.0558
     41 H13        21.0245   55.8830   35.7882 H           1 B69       0.0600
     42 H14        21.7105   54.1442   38.7239 H           1 B69       0.0600
     43 H15        23.7191   52.8684   39.0161 H           1 B69       0.0558
     44 H16        21.2481   52.5255   34.8532 H           1 B69       0.0600
     45 H17        23.2948   51.3003   35.1144 H           1 B69       0.0558
     46 H18        25.1976   51.0350   38.3173 H           1 B69       0.0427
     47 H19        25.7733   51.8842   36.8885 H           1 B69       0.0427
     48 H20        25.0559   50.0591   35.4333 H           1 B69       0.0288
     49 H21        24.2550   49.2205   36.7483 H           1 B69       0.0288
     50 H22        27.2442   49.7972   37.0279 H           1 B69       0.0298
     51 H23        26.7494   48.6400   35.8211 H           1 B69       0.0298
     52 H24        25.6436   47.2255   37.5302 H           1 B69       0.0695
@<TRIPOS>BOND
     1     1     2   1
     2     2     3   1
     3     3     4   1
     4     4     5   1
     5     5     6  ar
     6     5     8  ar
     7     6     7  ar
     8     7    10  ar
     9     8     9  ar
    10     9    10  ar
    11    10    11   1
    12    11    12  ar
    13    11    14  ar
    14    12    13  ar
    15    13    16  ar
    16    14    15  ar
    17    15    16  ar
    18    16    17   1
    19    17    18   1
    20    18    19   1
    21    19    20   1
    22    20    21   1
    23    20    25   1
    24    21    22  ar
    25    21    23  ar
    26    21    24  ar
    27    25    26  ar
    28    25    27  ar
    29    25    28  ar
    30     1    29   1
    31     1    30   1
    32     1    31   1
    33     2    32   1
    34     2    33   1
    35     3    34   1
    36     3    35   1
    37     4    36   1
    38     4    37   1
    39     6    38   1
    40     7    39   1
    41     8    40   1
    42     9    41   1
    43    12    42   1
    44    13    43   1
    45    14    44   1
    46    15    45   1
    47    17    46   1
    48    17    47   1
    49    18    48   1
    50    18    49   1
    51    19    50   1
    52    19    51   1
    53    20    52   1
@<TRIPOS>SUBSTRUCTURE
     1  B69      1

