@<TRIPOS>MOLECULE
2zcr_ligand_020
    52    53
SMALL
GAST_HUCK
****
This file was generated by PARSER (from files_GN.cpp)

@<TRIPOS>ATOM
      1 CAA        24.8029   51.7237   39.2930 C.3         1 B69      -0.0651
      2 CAP        23.7814   52.4855   38.4234 C.3         1 B69      -0.0541
      3 CAQ        23.4314   53.9290   38.8915 C.3         1 B69      -0.0435
      4 CAS        23.0629   54.1035   40.4024 C.3         1 B69      -0.0191
      5 CAV        23.9183   55.0990   41.0995 C.ar        1 B69      -0.0429
      6 CAI        23.4841   56.4259   41.3107 C.ar        1 B69      -0.0600
      7 CAM        24.3153   57.3583   41.9564 C.ar        1 B69      -0.0616
      8 CAH        25.2043   54.7266   41.5488 C.ar        1 B69      -0.0600
      9 CAL        26.0400   55.6522   42.1959 C.ar        1 B69      -0.0616
     10 CAX        25.5980   56.9788   42.4109 C.ar        1 B69      -0.0283
     11 CAY        26.4187   57.8891   43.1109 C.ar        1 B69      -0.0283
     12 CAO        26.9168   59.0548   42.4886 C.ar        1 B69      -0.0616
     13 CAK        27.7658   59.9287   43.1909 C.ar        1 B69      -0.0600
     14 CAN        26.7416   57.6462   44.4648 C.ar        1 B69      -0.0616
     15 CAJ        27.5508   58.5471   45.1781 C.ar        1 B69      -0.0600
     16 CAW        28.1056   59.6817   44.5435 C.ar        1 B69      -0.0429
     17 CAT        28.9155   60.6661   45.3188 C.3         1 B69      -0.0190
     18 CAR        30.0560   60.0835   46.2054 C.3         1 B69      -0.0402
     19 CAU        30.6498   61.1457   47.1895 C.3         1 B69      -0.0165
     20 CAZ        30.3269   61.0118   48.7166 C.3         1 B69       0.1121
     21 PBA        31.1996   59.8313   49.5118 P.3         1 B69       0.0795
     22 OAC        30.7531   58.4924   49.2140 O.co2       1 B69      -0.5610
     23 OAD        32.6008   59.9099   49.1887 O.co2       1 B69      -0.5610
     24 OAB        31.1093   60.0005   50.9433 O.co2       1 B69      -0.5610
     25 SBB        28.5586   60.8589   49.1234 S.o2        1 B69      -0.1731
     26 OAG        27.6015   61.7450   48.0382 O.co2       1 B69      -0.4830
     27 OAF        28.3149   61.4652   50.6884 O.co2       1 B69      -0.4830
     28 OAE        28.0549   59.2394   49.0798 O.co2       1 B69      -0.4830
     29 H1         25.0970   50.7934   38.7860 H           1 B69       0.0230
     30 H2         24.3598   51.4654   40.2636 H           1 B69       0.0230
     31 H3         25.7019   52.3261   39.4538 H           1 B69       0.0230
     32 H4         22.8645   51.8940   38.3651 H           1 B69       0.0264
     33 H5         24.1856   52.5501   37.4097 H           1 B69       0.0264
     34 H6         22.5792   54.2579   38.2946 H           1 B69       0.0287
     35 H7         24.2596   54.5837   38.6167 H           1 B69       0.0287
     36 H8         23.1461   53.1460   40.9346 H           1 B69       0.0427
     37 H9         22.0066   54.4067   40.4687 H           1 B69       0.0427
     38 H10        22.5616   56.7286   40.9939 H           1 B69       0.0558
     39 H11        23.9747   58.3092   42.1070 H           1 B69       0.0600
     40 H12        25.5444   53.7715   41.4158 H           1 B69       0.0558
     41 H13        26.9708   55.3529   42.5060 H           1 B69       0.0600
     42 H14        26.6783   59.2642   41.5166 H           1 B69       0.0600
     43 H15        28.1205   60.7583   42.7142 H           1 B69       0.0558
     44 H16        26.3783   56.8180   44.9512 H           1 B69       0.0600
     45 H17        27.7319   58.3610   46.1699 H           1 B69       0.0558
     46 H18        28.2158   61.2005   45.9648 H           1 B69       0.0427
     47 H19        29.3628   61.4095   44.6463 H           1 B69       0.0427
     48 H20        30.8518   59.7148   45.5394 H           1 B69       0.0288
     49 H21        29.6879   59.2159   46.7658 H           1 B69       0.0288
     50 H22        30.3309   62.1464   46.8767 H           1 B69       0.0298
     51 H23        31.7357   61.1389   47.0749 H           1 B69       0.0298
     52 H24        30.6344   61.9623   49.1598 H           1 B69       0.0695
@<TRIPOS>BOND
     1     1     2   1
     2     2     3   1
     3     3     4   1
     4     4     5   1
     5     5     6  ar
     6     5     8  ar
     7     6     7  ar
     8     7    10  ar
     9     8     9  ar
    10     9    10  ar
    11    10    11   1
    12    11    12  ar
    13    11    14  ar
    14    12    13  ar
    15    13    16  ar
    16    14    15  ar
    17    15    16  ar
    18    16    17   1
    19    17    18   1
    20    18    19   1
    21    19    20   1
    22    20    21   1
    23    20    25   1
    24    21    22  ar
    25    21    23  ar
    26    21    24  ar
    27    25    26  ar
    28    25    27  ar
    29    25    28  ar
    30     1    29   1
    31     1    30   1
    32     1    31   1
    33     2    32   1
    34     2    33   1
    35     3    34   1
    36     3    35   1
    37     4    36   1
    38     4    37   1
    39     6    38   1
    40     7    39   1
    41     8    40   1
    42     9    41   1
    43    12    42   1
    44    13    43   1
    45    14    44   1
    46    15    45   1
    47    17    46   1
    48    17    47   1
    49    18    48   1
    50    18    49   1
    51    19    50   1
    52    19    51   1
    53    20    52   1
@<TRIPOS>SUBSTRUCTURE
     1  B69      1

