@<TRIPOS>MOLECULE
2zcr_ligand_082
    52    53
SMALL
GAST_HUCK
****
This file was generated by PARSER (from files_GN.cpp)

@<TRIPOS>ATOM
      1 CAA        15.2812   51.2489   39.3351 C.3         1 B69      -0.0651
      2 CAP        15.6758   52.7158   39.6288 C.3         1 B69      -0.0541
      3 CAQ        15.9135   53.5777   38.3476 C.3         1 B69      -0.0435
      4 CAS        17.1580   54.5171   38.4180 C.3         1 B69      -0.0191
      5 CAV        18.4941   53.9172   38.1122 C.ar        1 B69      -0.0429
      6 CAI        19.5144   54.7328   37.5756 C.ar        1 B69      -0.0600
      7 CAM        20.7990   54.2101   37.3001 C.ar        1 B69      -0.0616
      8 CAH        18.8039   52.5576   38.3846 C.ar        1 B69      -0.0600
      9 CAL        20.0808   52.0367   38.1011 C.ar        1 B69      -0.0616
     10 CAX        21.0880   52.8576   37.5644 C.ar        1 B69      -0.0283
     11 CAY        22.3634   52.3197   37.2698 C.ar        1 B69      -0.0283
     12 CAO        23.4224   52.4278   38.1918 C.ar        1 B69      -0.0616
     13 CAK        24.6723   51.8346   37.9047 C.ar        1 B69      -0.0600
     14 CAN        22.5559   51.6183   36.0671 C.ar        1 B69      -0.0616
     15 CAJ        23.8040   51.0278   35.7865 C.ar        1 B69      -0.0600
     16 CAW        24.8801   51.1298   36.6988 C.ar        1 B69      -0.0429
     17 CAT        26.1891   50.4906   36.3986 C.3         1 B69      -0.0190
     18 CAR        26.4553   49.1994   37.2324 C.3         1 B69      -0.0402
     19 CAU        27.1980   48.1024   36.4064 C.3         1 B69      -0.0165
     20 CAZ        27.7663   46.8477   37.1429 C.3         1 B69       0.1121
     21 PBA        26.6797   46.0372   38.1186 P.3         1 B69       0.0795
     22 OAC        26.3794   46.7729   39.3217 O.co2       1 B69      -0.5610
     23 OAD        25.4463   45.7981   37.4195 O.co2       1 B69      -0.5610
     24 OAB        27.1911   44.7514   38.5115 O.co2       1 B69      -0.5610
     25 SBB        29.3398   47.2131   37.9912 S.o2        1 B69      -0.1731
     26 OAG        29.4802   46.4076   39.4735 O.co2       1 B69      -0.4830
     27 OAF        29.5018   48.8732   38.2790 O.co2       1 B69      -0.4830
     28 OAE        30.6018   46.7203   36.9780 O.co2       1 B69      -0.4830
     29 H1         15.1755   50.7010   40.2751 H           1 B69       0.0230
     30 H2         16.0486   50.7551   38.7342 H           1 B69       0.0230
     31 H3         14.3298   51.2097   38.7980 H           1 B69       0.0230
     32 H4         16.5711   52.6978   40.2516 H           1 B69       0.0264
     33 H5         14.8790   53.1747   40.2272 H           1 B69       0.0264
     34 H6         15.0176   54.1956   38.1933 H           1 B69       0.0287
     35 H7         16.0054   52.9482   37.4603 H           1 B69       0.0287
     36 H8         17.2103   54.9817   39.4084 H           1 B69       0.0427
     37 H9         16.9696   55.3304   37.7064 H           1 B69       0.0427
     38 H10        19.3378   55.7240   37.3796 H           1 B69       0.0558
     39 H11        21.5094   54.8288   36.8925 H           1 B69       0.0600
     40 H12        18.1098   51.9315   38.7962 H           1 B69       0.0558
     41 H13        20.2685   51.0495   38.3016 H           1 B69       0.0600
     42 H14        23.2990   52.9304   39.0776 H           1 B69       0.0600
     43 H15        25.4276   51.9190   38.5899 H           1 B69       0.0558
     44 H16        21.7925   51.5228   35.3855 H           1 B69       0.0600
     45 H17        23.9095   50.5087   34.9127 H           1 B69       0.0558
     46 H18        26.9834   51.2126   36.5868 H           1 B69       0.0427
     47 H19        26.2397   50.2590   35.3335 H           1 B69       0.0427
     48 H20        25.5043   48.7807   37.5813 H           1 B69       0.0288
     49 H21        27.0392   49.4648   38.1212 H           1 B69       0.0288
     50 H22        28.0248   48.5758   35.8680 H           1 B69       0.0298
     51 H23        26.5003   47.7537   35.6402 H           1 B69       0.0298
     52 H24        28.0326   46.1421   36.3558 H           1 B69       0.0695
@<TRIPOS>BOND
     1     1     2   1
     2     2     3   1
     3     3     4   1
     4     4     5   1
     5     5     6  ar
     6     5     8  ar
     7     6     7  ar
     8     7    10  ar
     9     8     9  ar
    10     9    10  ar
    11    10    11   1
    12    11    12  ar
    13    11    14  ar
    14    12    13  ar
    15    13    16  ar
    16    14    15  ar
    17    15    16  ar
    18    16    17   1
    19    17    18   1
    20    18    19   1
    21    19    20   1
    22    20    21   1
    23    20    25   1
    24    21    22  ar
    25    21    23  ar
    26    21    24  ar
    27    25    26  ar
    28    25    27  ar
    29    25    28  ar
    30     1    29   1
    31     1    30   1
    32     1    31   1
    33     2    32   1
    34     2    33   1
    35     3    34   1
    36     3    35   1
    37     4    36   1
    38     4    37   1
    39     6    38   1
    40     7    39   1
    41     8    40   1
    42     9    41   1
    43    12    42   1
    44    13    43   1
    45    14    44   1
    46    15    45   1
    47    17    46   1
    48    17    47   1
    49    18    48   1
    50    18    49   1
    51    19    50   1
    52    19    51   1
    53    20    52   1
@<TRIPOS>SUBSTRUCTURE
     1  B69      1

