@<TRIPOS>MOLECULE
2zcr_ligand_012
    52    53
SMALL
GAST_HUCK
****
This file was generated by PARSER (from files_GN.cpp)

@<TRIPOS>ATOM
      1 CAA        23.7283   47.9237   33.1750 C.3         1 B69      -0.0651
      2 CAP        22.5227   48.8839   33.3192 C.3         1 B69      -0.0541
      3 CAQ        21.6292   48.5157   34.5429 C.3         1 B69      -0.0435
      4 CAS        20.6762   49.6437   35.0447 C.3         1 B69      -0.0191
      5 CAV        21.2267   50.6378   36.0223 C.ar        1 B69      -0.0429
      6 CAI        20.3398   51.3641   36.8531 C.ar        1 B69      -0.0600
      7 CAM        20.8146   52.3028   37.7904 C.ar        1 B69      -0.0616
      8 CAH        22.6038   50.9278   36.1454 C.ar        1 B69      -0.0600
      9 CAL        23.0714   51.9024   37.0343 C.ar        1 B69      -0.0616
     10 CAX        22.1988   52.6002   37.9153 C.ar        1 B69      -0.0283
     11 CAY        22.7056   53.5279   38.8944 C.ar        1 B69      -0.0283
     12 CAO        24.0162   53.4135   39.4325 C.ar        1 B69      -0.0616
     13 CAK        24.5243   54.3257   40.3682 C.ar        1 B69      -0.0600
     14 CAN        21.9199   54.6058   39.3868 C.ar        1 B69      -0.0616
     15 CAJ        22.4096   55.4902   40.3678 C.ar        1 B69      -0.0600
     16 CAW        23.7232   55.3713   40.8830 C.ar        1 B69      -0.0429
     17 CAT        24.2167   56.3714   41.8838 C.3         1 B69      -0.0190
     18 CAR        25.5138   56.0595   42.7085 C.3         1 B69      -0.0402
     19 CAU        26.8264   56.6491   42.1073 C.3         1 B69      -0.0165
     20 CAZ        27.0097   58.1826   42.4016 C.3         1 B69       0.1121
     21 PBA        27.9439   58.9631   41.2580 P.3         1 B69       0.0795
     22 OAC        29.2652   58.3809   41.2150 O.co2       1 B69      -0.5610
     23 OAD        27.3443   58.7919   39.9665 O.co2       1 B69      -0.5610
     24 OAB        28.0288   60.3832   41.4991 O.co2       1 B69      -0.5610
     25 SBB        27.6508   58.5120   44.0751 S.o2        1 B69      -0.1731
     26 OAG        27.5132   57.1467   45.0650 O.co2       1 B69      -0.4830
     27 OAF        26.7587   59.7795   44.7506 O.co2       1 B69      -0.4830
     28 OAE        29.2792   58.9692   44.0533 O.co2       1 B69      -0.4830
     29 H1         24.3455   48.2247   32.3275 H           1 B69       0.0230
     30 H2         23.3762   46.9038   33.0095 H           1 B69       0.0230
     31 H3         24.3424   47.9474   34.0780 H           1 B69       0.0230
     32 H4         21.9188   48.8286   32.4082 H           1 B69       0.0264
     33 H5         22.8969   49.9082   33.3948 H           1 B69       0.0264
     34 H6         22.2477   48.1879   35.3863 H           1 B69       0.0287
     35 H7         21.0199   47.6559   34.2490 H           1 B69       0.0287
     36 H8         19.8318   49.1398   35.5248 H           1 B69       0.0427
     37 H9         20.2727   50.1927   34.1911 H           1 B69       0.0427
     38 H10        19.3301   51.1969   36.8015 H           1 B69       0.0558
     39 H11        20.1268   52.7552   38.3928 H           1 B69       0.0600
     40 H12        23.2943   50.4326   35.5865 H           1 B69       0.0558
     41 H13        24.0730   52.0974   37.0234 H           1 B69       0.0600
     42 H14        24.6331   52.6513   39.1531 H           1 B69       0.0600
     43 H15        25.4965   54.2246   40.6545 H           1 B69       0.0558
     44 H16        20.9812   54.7743   39.0267 H           1 B69       0.0600
     45 H17        21.7964   56.2475   40.6901 H           1 B69       0.0558
     46 H18        23.4154   56.5245   42.6145 H           1 B69       0.0427
     47 H19        24.3359   57.3145   41.3464 H           1 B69       0.0427
     48 H20        25.6229   54.9779   42.8505 H           1 B69       0.0288
     49 H21        25.3930   56.4747   43.7083 H           1 B69       0.0288
     50 H22        26.8108   56.4412   41.0347 H           1 B69       0.0298
     51 H23        27.6816   56.0976   42.5147 H           1 B69       0.0298
     52 H24        26.0371   58.6720   42.3536 H           1 B69       0.0695
@<TRIPOS>BOND
     1     1     2   1
     2     2     3   1
     3     3     4   1
     4     4     5   1
     5     5     6  ar
     6     5     8  ar
     7     6     7  ar
     8     7    10  ar
     9     8     9  ar
    10     9    10  ar
    11    10    11   1
    12    11    12  ar
    13    11    14  ar
    14    12    13  ar
    15    13    16  ar
    16    14    15  ar
    17    15    16  ar
    18    16    17   1
    19    17    18   1
    20    18    19   1
    21    19    20   1
    22    20    21   1
    23    20    25   1
    24    21    22  ar
    25    21    23  ar
    26    21    24  ar
    27    25    26  ar
    28    25    27  ar
    29    25    28  ar
    30     1    29   1
    31     1    30   1
    32     1    31   1
    33     2    32   1
    34     2    33   1
    35     3    34   1
    36     3    35   1
    37     4    36   1
    38     4    37   1
    39     6    38   1
    40     7    39   1
    41     8    40   1
    42     9    41   1
    43    12    42   1
    44    13    43   1
    45    14    44   1
    46    15    45   1
    47    17    46   1
    48    17    47   1
    49    18    48   1
    50    18    49   1
    51    19    50   1
    52    19    51   1
    53    20    52   1
@<TRIPOS>SUBSTRUCTURE
     1  B69      1

