@<TRIPOS>MOLECULE
2zcr_ligand_031
    52    53
SMALL
GAST_HUCK
****
This file was generated by PARSER (from files_GN.cpp)

@<TRIPOS>ATOM
      1 CAA        20.4790   55.4327   35.0461 C.3         1 B69      -0.0651
      2 CAP        19.0264   55.4069   35.5695 C.3         1 B69      -0.0541
      3 CAQ        18.8960   55.3255   37.1177 C.3         1 B69      -0.0435
      4 CAS        18.8886   53.9001   37.7463 C.3         1 B69      -0.0191
      5 CAV        20.1674   53.1283   37.7371 C.ar        1 B69      -0.0429
      6 CAI        21.4026   53.7657   37.9849 C.ar        1 B69      -0.0600
      7 CAM        22.6034   53.0329   38.0219 C.ar        1 B69      -0.0616
      8 CAH        20.1613   51.7210   37.5740 C.ar        1 B69      -0.0600
      9 CAL        21.3585   50.9808   37.6524 C.ar        1 B69      -0.0616
     10 CAX        22.5976   51.6272   37.8702 C.ar        1 B69      -0.0283
     11 CAY        23.8099   50.8821   37.9584 C.ar        1 B69      -0.0283
     12 CAO        23.9292   49.7741   38.8337 C.ar        1 B69      -0.0616
     13 CAK        25.1200   49.0268   38.8987 C.ar        1 B69      -0.0600
     14 CAN        24.9305   51.2342   37.1735 C.ar        1 B69      -0.0616
     15 CAJ        26.1142   50.4834   37.2307 C.ar        1 B69      -0.0600
     16 CAW        26.2188   49.3487   38.0684 C.ar        1 B69      -0.0429
     17 CAT        27.4203   48.4682   38.0214 C.3         1 B69      -0.0190
     18 CAR        27.1853   47.0690   37.3632 C.3         1 B69      -0.0402
     19 CAU        26.0958   46.9593   36.2467 C.3         1 B69      -0.0165
     20 CAZ        26.2843   47.9400   35.0321 C.3         1 B69       0.1121
     21 PBA        24.8856   48.7221   34.5259 P.3         1 B69       0.0795
     22 OAC        24.1974   48.0725   33.4427 O.co2       1 B69      -0.5610
     23 OAD        23.9227   48.8510   35.5922 O.co2       1 B69      -0.5610
     24 OAB        25.1792   50.0896   34.1862 O.co2       1 B69      -0.5610
     25 SBB        27.1959   47.1865   33.6449 S.o2        1 B69      -0.1731
     26 OAG        27.2708   45.5018   33.7848 O.co2       1 B69      -0.4830
     27 OAF        28.7751   47.7903   33.6606 O.co2       1 B69      -0.4830
     28 OAE        26.5023   47.5510   32.1446 O.co2       1 B69      -0.4830
     29 H1         20.4794   55.6029   33.9681 H           1 B69       0.0230
     30 H2         20.9793   54.4835   35.2420 H           1 B69       0.0230
     31 H3         21.0399   56.2407   35.5232 H           1 B69       0.0230
     32 H4         18.4890   54.5757   35.1068 H           1 B69       0.0264
     33 H5         18.5474   56.3345   35.2358 H           1 B69       0.0264
     34 H6         17.9344   55.7805   37.3790 H           1 B69       0.0287
     35 H7         19.6660   55.9409   37.5888 H           1 B69       0.0287
     36 H8         18.0941   53.3282   37.2554 H           1 B69       0.0427
     37 H9         18.5945   54.0076   38.7925 H           1 B69       0.0427
     38 H10        21.4434   54.7725   38.1524 H           1 B69       0.0558
     39 H11        23.4788   53.5356   38.1975 H           1 B69       0.0600
     40 H12        19.2847   51.2200   37.4265 H           1 B69       0.0558
     41 H13        21.3136   49.9643   37.5488 H           1 B69       0.0600
     42 H14        23.1491   49.5023   39.4374 H           1 B69       0.0600
     43 H15        25.1702   48.2246   39.5287 H           1 B69       0.0558
     44 H16        24.8799   52.0192   36.5164 H           1 B69       0.0600
     45 H17        26.8889   50.7513   36.6208 H           1 B69       0.0558
     46 H18        27.7833   48.3284   39.0445 H           1 B69       0.0427
     47 H19        28.2295   48.9655   37.4803 H           1 B69       0.0427
     48 H20        26.9057   46.3694   38.1581 H           1 B69       0.0288
     49 H21        28.1361   46.7193   36.9557 H           1 B69       0.0288
     50 H22        25.1336   47.1150   36.7362 H           1 B69       0.0298
     51 H23        26.0661   45.9259   35.8941 H           1 B69       0.0298
     52 H24        26.9331   48.7477   35.3589 H           1 B69       0.0695
@<TRIPOS>BOND
     1     1     2   1
     2     2     3   1
     3     3     4   1
     4     4     5   1
     5     5     6  ar
     6     5     8  ar
     7     6     7  ar
     8     7    10  ar
     9     8     9  ar
    10     9    10  ar
    11    10    11   1
    12    11    12  ar
    13    11    14  ar
    14    12    13  ar
    15    13    16  ar
    16    14    15  ar
    17    15    16  ar
    18    16    17   1
    19    17    18   1
    20    18    19   1
    21    19    20   1
    22    20    21   1
    23    20    25   1
    24    21    22  ar
    25    21    23  ar
    26    21    24  ar
    27    25    26  ar
    28    25    27  ar
    29    25    28  ar
    30     1    29   1
    31     1    30   1
    32     1    31   1
    33     2    32   1
    34     2    33   1
    35     3    34   1
    36     3    35   1
    37     4    36   1
    38     4    37   1
    39     6    38   1
    40     7    39   1
    41     8    40   1
    42     9    41   1
    43    12    42   1
    44    13    43   1
    45    14    44   1
    46    15    45   1
    47    17    46   1
    48    17    47   1
    49    18    48   1
    50    18    49   1
    51    19    50   1
    52    19    51   1
    53    20    52   1
@<TRIPOS>SUBSTRUCTURE
     1  B69      1

