@<TRIPOS>MOLECULE
2zcr_ligand_089
    52    53
SMALL
GAST_HUCK
****
This file was generated by PARSER (from files_GN.cpp)

@<TRIPOS>ATOM
      1 CAA        15.8617   56.3332   39.4581 C.3         1 B69      -0.0651
      2 CAP        16.9366   55.2646   39.1524 C.3         1 B69      -0.0541
      3 CAQ        16.3498   53.8670   38.7904 C.3         1 B69      -0.0435
      4 CAS        16.1895   53.5837   37.2598 C.3         1 B69      -0.0191
      5 CAV        17.1593   52.5764   36.7398 C.ar        1 B69      -0.0429
      6 CAI        16.8725   51.1970   36.8427 C.ar        1 B69      -0.0600
      7 CAM        17.7737   50.2350   36.3517 C.ar        1 B69      -0.0616
      8 CAH        18.3872   52.9735   36.1666 C.ar        1 B69      -0.0600
      9 CAL        19.2988   52.0131   35.6872 C.ar        1 B69      -0.0616
     10 CAX        18.9933   50.6366   35.7650 C.ar        1 B69      -0.0283
     11 CAY        19.9015   49.6697   35.2648 C.ar        1 B69      -0.0283
     12 CAO        21.1309   49.4419   35.9196 C.ar        1 B69      -0.0616
     13 CAK        21.9947   48.4386   35.4554 C.ar        1 B69      -0.0600
     14 CAN        19.5788   48.9151   34.1181 C.ar        1 B69      -0.0616
     15 CAJ        20.4859   47.9632   33.6131 C.ar        1 B69      -0.0600
     16 CAW        21.7171   47.7315   34.2623 C.ar        1 B69      -0.0429
     17 CAT        22.6751   46.7338   33.6990 C.3         1 B69      -0.0190
     18 CAR        23.5146   47.2496   32.4908 C.3         1 B69      -0.0402
     19 CAU        24.8771   47.9169   32.8522 C.3         1 B69      -0.0165
     20 CAZ        24.8172   49.3162   33.5385 C.3         1 B69       0.1121
     21 PBA        24.3234   50.5770   32.5311 P.3         1 B69       0.0795
     22 OAC        23.0772   51.1248   32.9882 O.co2       1 B69      -0.5610
     23 OAD        25.2107   51.7069   32.4388 O.co2       1 B69      -0.5610
     24 OAB        24.0637   50.1794   31.1746 O.co2       1 B69      -0.5610
     25 SBB        26.2875   49.6777   34.5535 S.o2        1 B69      -0.1731
     26 OAG        27.2216   48.2921   34.8016 O.co2       1 B69      -0.4830
     27 OAF        25.7647   50.2333   36.0615 O.co2       1 B69      -0.4830
     28 OAE        27.2964   50.8469   33.8653 O.co2       1 B69      -0.4830
     29 H1         16.3374   57.2980   39.6450 H           1 B69       0.0230
     30 H2         15.2979   56.0518   40.3506 H           1 B69       0.0230
     31 H3         15.1707   56.4377   38.6222 H           1 B69       0.0230
     32 H4         17.5622   55.1637   40.0411 H           1 B69       0.0264
     33 H5         17.5810   55.6242   38.3458 H           1 B69       0.0264
     34 H6         15.3726   53.7540   39.2704 H           1 B69       0.0287
     35 H7         16.9914   53.1005   39.2400 H           1 B69       0.0287
     36 H8         16.2689   54.5121   36.6862 H           1 B69       0.0427
     37 H9         15.1739   53.2166   37.0732 H           1 B69       0.0427
     38 H10        16.0033   50.8790   37.2745 H           1 B69       0.0558
     39 H11        17.5431   49.2408   36.4395 H           1 B69       0.0600
     40 H12        18.6302   53.9635   36.0946 H           1 B69       0.0558
     41 H13        20.1803   52.3258   35.2657 H           1 B69       0.0600
     42 H14        21.3818   49.9677   36.7574 H           1 B69       0.0600
     43 H15        22.8691   48.2724   35.9629 H           1 B69       0.0558
     44 H16        18.6855   49.0549   33.6324 H           1 B69       0.0600
     45 H17        20.2329   47.4367   32.7762 H           1 B69       0.0558
     46 H18        22.0941   45.8643   33.3749 H           1 B69       0.0427
     47 H19        23.3469   46.3664   34.4816 H           1 B69       0.0427
     48 H20        22.9118   47.9253   31.8766 H           1 B69       0.0288
     49 H21        23.7439   46.3878   31.8606 H           1 B69       0.0288
     50 H22        25.4814   47.9972   31.9393 H           1 B69       0.0298
     51 H23        25.3956   47.2129   33.4975 H           1 B69       0.0298
     52 H24        24.0580   49.2562   34.2771 H           1 B69       0.0695
@<TRIPOS>BOND
     1     1     2   1
     2     2     3   1
     3     3     4   1
     4     4     5   1
     5     5     6  ar
     6     5     8  ar
     7     6     7  ar
     8     7    10  ar
     9     8     9  ar
    10     9    10  ar
    11    10    11   1
    12    11    12  ar
    13    11    14  ar
    14    12    13  ar
    15    13    16  ar
    16    14    15  ar
    17    15    16  ar
    18    16    17   1
    19    17    18   1
    20    18    19   1
    21    19    20   1
    22    20    21   1
    23    20    25   1
    24    21    22  ar
    25    21    23  ar
    26    21    24  ar
    27    25    26  ar
    28    25    27  ar
    29    25    28  ar
    30     1    29   1
    31     1    30   1
    32     1    31   1
    33     2    32   1
    34     2    33   1
    35     3    34   1
    36     3    35   1
    37     4    36   1
    38     4    37   1
    39     6    38   1
    40     7    39   1
    41     8    40   1
    42     9    41   1
    43    12    42   1
    44    13    43   1
    45    14    44   1
    46    15    45   1
    47    17    46   1
    48    17    47   1
    49    18    48   1
    50    18    49   1
    51    19    50   1
    52    19    51   1
    53    20    52   1
@<TRIPOS>SUBSTRUCTURE
     1  B69      1

