@<TRIPOS>MOLECULE
2zcr_ligand_001
    52    53
SMALL
GAST_HUCK
****
This file was generated by PARSER (from files_GN.cpp)

@<TRIPOS>ATOM
      1 CAA        16.0579   48.6288   36.9860 C.3         1 B69      -0.0651
      2 CAP        16.5573   48.4901   35.5282 C.3         1 B69      -0.0541
      3 CAQ        17.8539   49.2950   35.2260 C.3         1 B69      -0.0435
      4 CAS        17.6912   50.8469   35.2458 C.3         1 B69      -0.0191
      5 CAV        18.6843   51.5428   36.1084 C.ar        1 B69      -0.0429
      6 CAI        18.3636   51.8652   37.4435 C.ar        1 B69      -0.0600
      7 CAM        19.2696   52.5744   38.2512 C.ar        1 B69      -0.0616
      8 CAH        19.9631   51.8940   35.6251 C.ar        1 B69      -0.0600
      9 CAL        20.8707   52.6089   36.4307 C.ar        1 B69      -0.0616
     10 CAX        20.5306   52.9912   37.7526 C.ar        1 B69      -0.0283
     11 CAY        21.4124   53.7660   38.5694 C.ar        1 B69      -0.0283
     12 CAO        20.9130   54.8203   39.3710 C.ar        1 B69      -0.0616
     13 CAK        21.7477   55.5250   40.2638 C.ar        1 B69      -0.0600
     14 CAN        22.8013   53.4855   38.6533 C.ar        1 B69      -0.0616
     15 CAJ        23.6409   54.1927   39.5390 C.ar        1 B69      -0.0600
     16 CAW        23.1227   55.2124   40.3717 C.ar        1 B69      -0.0429
     17 CAT        23.9646   55.8481   41.4403 C.3         1 B69      -0.0190
     18 CAR        23.8199   57.3901   41.6473 C.3         1 B69      -0.0402
     19 CAU        24.9755   58.2672   41.0631 C.3         1 B69      -0.0165
     20 CAZ        26.2638   58.5106   41.9403 C.3         1 B69       0.1121
     21 PBA        27.4885   59.2333   41.0442 P.3         1 B69       0.0795
     22 OAC        27.5887   60.6571   41.2870 O.co2       1 B69      -0.5610
     23 OAD        28.8138   58.7116   41.3093 O.co2       1 B69      -0.5610
     24 OAB        27.3249   59.0637   39.6225 O.co2       1 B69      -0.5610
     25 SBB        26.8738   57.0620   42.8570 S.o2        1 B69      -0.1731
     26 OAG        27.4720   55.8973   41.7836 O.co2       1 B69      -0.4830
     27 OAF        25.6383   56.4043   43.8062 O.co2       1 B69      -0.4830
     28 OAE        28.1131   57.5302   43.9114 O.co2       1 B69      -0.4830
     29 H1         15.1809   47.9930   37.1438 H           1 B69       0.0230
     30 H2         15.7742   49.6604   37.2048 H           1 B69       0.0230
     31 H3         16.8382   48.3205   37.6874 H           1 B69       0.0230
     32 H4         15.7621   48.7995   34.8456 H           1 B69       0.0264
     33 H5         16.7465   47.4295   35.3430 H           1 B69       0.0264
     34 H6         18.2024   48.9962   34.2350 H           1 B69       0.0287
     35 H7         18.6226   48.9776   35.9316 H           1 B69       0.0287
     36 H8         16.6889   51.1226   35.5786 H           1 B69       0.0427
     37 H9         17.7634   51.2223   34.2204 H           1 B69       0.0427
     38 H10        17.4610   51.5963   37.8367 H           1 B69       0.0558
     39 H11        18.9940   52.7801   39.2158 H           1 B69       0.0600
     40 H12        20.2438   51.6410   34.6755 H           1 B69       0.0558
     41 H13        21.7794   52.8729   36.0374 H           1 B69       0.0600
     42 H14        19.9266   55.0882   39.3353 H           1 B69       0.0600
     43 H15        21.3419   56.2629   40.8467 H           1 B69       0.0558
     44 H16        23.2045   52.7265   38.1025 H           1 B69       0.0600
     45 H17        24.6256   53.9207   39.6080 H           1 B69       0.0558
     46 H18        25.0222   55.6050   41.2757 H           1 B69       0.0427
     47 H19        23.6898   55.3564   42.3749 H           1 B69       0.0427
     48 H20        23.7429   57.5961   42.7181 H           1 B69       0.0288
     49 H21        22.8660   57.7058   41.1956 H           1 B69       0.0288
     50 H22        24.5377   59.2518   40.8624 H           1 B69       0.0298
     51 H23        25.2513   57.8505   40.0956 H           1 B69       0.0298
     52 H24        25.9833   59.2288   42.7166 H           1 B69       0.0695
@<TRIPOS>BOND
     1     1     2   1
     2     2     3   1
     3     3     4   1
     4     4     5   1
     5     5     6  ar
     6     5     8  ar
     7     6     7  ar
     8     7    10  ar
     9     8     9  ar
    10     9    10  ar
    11    10    11   1
    12    11    12  ar
    13    11    14  ar
    14    12    13  ar
    15    13    16  ar
    16    14    15  ar
    17    15    16  ar
    18    16    17   1
    19    17    18   1
    20    18    19   1
    21    19    20   1
    22    20    21   1
    23    20    25   1
    24    21    22  ar
    25    21    23  ar
    26    21    24  ar
    27    25    26  ar
    28    25    27  ar
    29    25    28  ar
    30     1    29   1
    31     1    30   1
    32     1    31   1
    33     2    32   1
    34     2    33   1
    35     3    34   1
    36     3    35   1
    37     4    36   1
    38     4    37   1
    39     6    38   1
    40     7    39   1
    41     8    40   1
    42     9    41   1
    43    12    42   1
    44    13    43   1
    45    14    44   1
    46    15    45   1
    47    17    46   1
    48    17    47   1
    49    18    48   1
    50    18    49   1
    51    19    50   1
    52    19    51   1
    53    20    52   1
@<TRIPOS>SUBSTRUCTURE
     1  B69      1

