@<TRIPOS>MOLECULE
2zcr_ligand_094
    52    53
SMALL
GAST_HUCK
****
This file was generated by PARSER (from files_GN.cpp)

@<TRIPOS>ATOM
      1 CAA        18.4299   51.8970   36.1296 C.3         1 B69      -0.0651
      2 CAP        18.6312   52.8287   37.3506 C.3         1 B69      -0.0541
      3 CAQ        19.0441   54.2975   37.0291 C.3         1 B69      -0.0435
      4 CAS        20.3650   54.4771   36.2336 C.3         1 B69      -0.0191
      5 CAV        21.4834   53.5486   36.6170 C.ar        1 B69      -0.0429
      6 CAI        21.9588   52.5968   35.6907 C.ar        1 B69      -0.0600
      7 CAM        22.9794   51.6990   36.0325 C.ar        1 B69      -0.0616
      8 CAH        22.0812   53.6029   37.8999 C.ar        1 B69      -0.0600
      9 CAL        23.0912   52.6889   38.2550 C.ar        1 B69      -0.0616
     10 CAX        23.5332   51.7157   37.3304 C.ar        1 B69      -0.0283
     11 CAY        24.4937   50.7293   37.6823 C.ar        1 B69      -0.0283
     12 CAO        25.7498   50.6870   37.0426 C.ar        1 B69      -0.0616
     13 CAK        26.6645   49.6562   37.3343 C.ar        1 B69      -0.0600
     14 CAN        24.1532   49.7052   38.5981 C.ar        1 B69      -0.0616
     15 CAJ        25.0719   48.6754   38.8808 C.ar        1 B69      -0.0600
     16 CAW        26.3494   48.6492   38.2741 C.ar        1 B69      -0.0429
     17 CAT        27.3596   47.6102   38.6276 C.3         1 B69      -0.0190
     18 CAR        28.5942   48.1808   39.3742 C.3         1 B69      -0.0402
     19 CAU        28.2683   48.8952   40.7320 C.3         1 B69      -0.0165
     20 CAZ        29.0888   48.5260   42.0083 C.3         1 B69       0.1121
     21 PBA        30.7195   48.8538   41.9473 P.3         1 B69       0.0795
     22 OAC        30.9524   50.2198   41.5579 O.co2       1 B69      -0.5610
     23 OAD        31.3297   48.6833   43.2387 O.co2       1 B69      -0.5610
     24 OAB        31.4288   48.0127   41.0218 O.co2       1 B69      -0.5610
     25 SBB        28.7862   46.8113   42.5417 S.o2        1 B69      -0.1731
     26 OAG        29.5894   45.7129   41.5277 O.co2       1 B69      -0.4830
     27 OAF        27.1348   46.4738   42.5100 O.co2       1 B69      -0.4830
     28 OAE        29.3565   46.6057   44.1228 O.co2       1 B69      -0.4830
     29 H1         18.2663   50.8705   36.4847 H           1 B69       0.0230
     30 H2         19.3031   51.8887   35.4790 H           1 B69       0.0230
     31 H3         17.5595   52.2056   35.5459 H           1 B69       0.0230
     32 H4         19.4004   52.3853   37.9917 H           1 B69       0.0264
     33 H5         17.7066   52.8430   37.9208 H           1 B69       0.0264
     34 H6         19.1377   54.8213   37.9842 H           1 B69       0.0287
     35 H7         18.2369   54.7709   36.4808 H           1 B69       0.0287
     36 H8         20.7267   55.5016   36.3727 H           1 B69       0.0427
     37 H9         20.1382   54.3690   35.1769 H           1 B69       0.0427
     38 H10        21.5667   52.5497   34.7474 H           1 B69       0.0558
     39 H11        23.2978   51.0235   35.3384 H           1 B69       0.0600
     40 H12        21.7862   54.3098   38.5739 H           1 B69       0.0558
     41 H13        23.5104   52.7453   39.1859 H           1 B69       0.0600
     42 H14        26.0101   51.4031   36.3581 H           1 B69       0.0600
     43 H15        27.5660   49.6487   36.8549 H           1 B69       0.0558
     44 H16        23.2340   49.6879   39.0373 H           1 B69       0.0600
     45 H17        24.7957   47.9434   39.5434 H           1 B69       0.0558
     46 H18        27.6937   47.1230   37.7076 H           1 B69       0.0427
     47 H19        26.9138   46.8328   39.2504 H           1 B69       0.0427
     48 H20        29.1138   48.8879   38.7188 H           1 B69       0.0288
     49 H21        29.2897   47.3575   39.5429 H           1 B69       0.0288
     50 H22        27.2160   48.7396   40.9751 H           1 B69       0.0298
     51 H23        28.3615   49.9823   40.5682 H           1 B69       0.0298
     52 H24        28.6815   49.1448   42.8115 H           1 B69       0.0695
@<TRIPOS>BOND
     1     1     2   1
     2     2     3   1
     3     3     4   1
     4     4     5   1
     5     5     6  ar
     6     5     8  ar
     7     6     7  ar
     8     7    10  ar
     9     8     9  ar
    10     9    10  ar
    11    10    11   1
    12    11    12  ar
    13    11    14  ar
    14    12    13  ar
    15    13    16  ar
    16    14    15  ar
    17    15    16  ar
    18    16    17   1
    19    17    18   1
    20    18    19   1
    21    19    20   1
    22    20    21   1
    23    20    25   1
    24    21    22  ar
    25    21    23  ar
    26    21    24  ar
    27    25    26  ar
    28    25    27  ar
    29    25    28  ar
    30     1    29   1
    31     1    30   1
    32     1    31   1
    33     2    32   1
    34     2    33   1
    35     3    34   1
    36     3    35   1
    37     4    36   1
    38     4    37   1
    39     6    38   1
    40     7    39   1
    41     8    40   1
    42     9    41   1
    43    12    42   1
    44    13    43   1
    45    14    44   1
    46    15    45   1
    47    17    46   1
    48    17    47   1
    49    18    48   1
    50    18    49   1
    51    19    50   1
    52    19    51   1
    53    20    52   1
@<TRIPOS>SUBSTRUCTURE
     1  B69      1

