@<TRIPOS>MOLECULE
2zcr_ligand_055
    52    53
SMALL
GAST_HUCK
****
This file was generated by PARSER (from files_GN.cpp)

@<TRIPOS>ATOM
      1 CAA        16.9206   52.6895   35.4631 C.3         1 B69      -0.0651
      2 CAP        16.0661   53.8768   35.9656 C.3         1 B69      -0.0541
      3 CAQ        16.0073   54.0677   37.5083 C.3         1 B69      -0.0435
      4 CAS        17.1945   54.8336   38.1674 C.3         1 B69      -0.0191
      5 CAV        18.5430   54.2307   37.9758 C.ar        1 B69      -0.0429
      6 CAI        19.5808   54.9515   37.3381 C.ar        1 B69      -0.0600
      7 CAM        20.8342   54.3577   37.1021 C.ar        1 B69      -0.0616
      8 CAH        18.8067   52.9105   38.4103 C.ar        1 B69      -0.0600
      9 CAL        20.0501   52.3039   38.1551 C.ar        1 B69      -0.0616
     10 CAX        21.0716   53.0247   37.5010 C.ar        1 B69      -0.0283
     11 CAY        22.3173   52.4211   37.2527 C.ar        1 B69      -0.0283
     12 CAO        23.3485   52.5228   38.2105 C.ar        1 B69      -0.0616
     13 CAK        24.6026   51.9346   37.9650 C.ar        1 B69      -0.0600
     14 CAN        22.5507   51.7205   36.0498 C.ar        1 B69      -0.0616
     15 CAJ        23.8027   51.1278   35.8108 C.ar        1 B69      -0.0600
     16 CAW        24.8445   51.2304   36.7612 C.ar        1 B69      -0.0429
     17 CAT        26.1784   50.6209   36.5104 C.3         1 B69      -0.0190
     18 CAR        26.4182   49.3465   37.3649 C.3         1 B69      -0.0402
     19 CAU        27.8599   48.7777   37.2151 C.3         1 B69      -0.0165
     20 CAZ        28.0865   47.3808   37.8811 C.3         1 B69       0.1121
     21 PBA        29.7010   47.0481   38.1687 P.3         1 B69       0.0795
     22 OAC        29.8265   45.9101   39.0436 O.co2       1 B69      -0.5610
     23 OAD        30.4499   46.7574   36.9702 O.co2       1 B69      -0.5610
     24 OAB        30.3859   48.1238   38.8362 O.co2       1 B69      -0.5610
     25 SBB        27.3687   46.0366   36.8771 S.o2        1 B69      -0.1731
     26 OAG        27.7843   44.5238   37.5095 O.co2       1 B69      -0.4830
     27 OAF        27.9459   46.1442   35.2922 O.co2       1 B69      -0.4830
     28 OAE        25.6807   46.1185   36.8464 O.co2       1 B69      -0.4830
     29 H1         16.7740   52.5669   34.3893 H           1 B69       0.0230
     30 H2         16.6195   51.7637   35.9549 H           1 B69       0.0230
     31 H3         17.9816   52.8599   35.6408 H           1 B69       0.0230
     32 H4         15.0427   53.7030   35.6189 H           1 B69       0.0264
     33 H5         16.4191   54.7988   35.4968 H           1 B69       0.0264
     34 H6         15.8739   53.0968   37.9923 H           1 B69       0.0287
     35 H7         15.1055   54.6492   37.7268 H           1 B69       0.0287
     36 H8         17.0029   54.8966   39.2437 H           1 B69       0.0427
     37 H9         17.1781   55.8609   37.7898 H           1 B69       0.0427
     38 H10        19.4284   55.9103   37.0139 H           1 B69       0.0558
     39 H11        21.5635   54.8918   36.6219 H           1 B69       0.0600
     40 H12        18.0816   52.3647   38.8797 H           1 B69       0.0558
     41 H13        20.1987   51.3310   38.4339 H           1 B69       0.0600
     42 H14        23.1956   53.0281   39.0865 H           1 B69       0.0600
     43 H15        25.3388   52.0327   38.6666 H           1 B69       0.0558
     44 H16        21.8145   51.6323   35.3446 H           1 B69       0.0600
     45 H17        23.9495   50.6165   34.9363 H           1 B69       0.0558
     46 H18        26.9465   51.3697   36.7192 H           1 B69       0.0427
     47 H19        26.2836   50.3528   35.4543 H           1 B69       0.0427
     48 H20        25.6831   48.6025   37.0641 H           1 B69       0.0288
     49 H21        26.2462   49.5744   38.4201 H           1 B69       0.0288
     50 H22        28.5218   49.5212   37.6703 H           1 B69       0.0298
     51 H23        28.1281   48.7234   36.1543 H           1 B69       0.0298
     52 H24        27.5883   47.3733   38.8507 H           1 B69       0.0695
@<TRIPOS>BOND
     1     1     2   1
     2     2     3   1
     3     3     4   1
     4     4     5   1
     5     5     6  ar
     6     5     8  ar
     7     6     7  ar
     8     7    10  ar
     9     8     9  ar
    10     9    10  ar
    11    10    11   1
    12    11    12  ar
    13    11    14  ar
    14    12    13  ar
    15    13    16  ar
    16    14    15  ar
    17    15    16  ar
    18    16    17   1
    19    17    18   1
    20    18    19   1
    21    19    20   1
    22    20    21   1
    23    20    25   1
    24    21    22  ar
    25    21    23  ar
    26    21    24  ar
    27    25    26  ar
    28    25    27  ar
    29    25    28  ar
    30     1    29   1
    31     1    30   1
    32     1    31   1
    33     2    32   1
    34     2    33   1
    35     3    34   1
    36     3    35   1
    37     4    36   1
    38     4    37   1
    39     6    38   1
    40     7    39   1
    41     8    40   1
    42     9    41   1
    43    12    42   1
    44    13    43   1
    45    14    44   1
    46    15    45   1
    47    17    46   1
    48    17    47   1
    49    18    48   1
    50    18    49   1
    51    19    50   1
    52    19    51   1
    53    20    52   1
@<TRIPOS>SUBSTRUCTURE
     1  B69      1

