@<TRIPOS>MOLECULE
2zcr_ligand_080
    52    53
SMALL
GAST_HUCK
****
This file was generated by PARSER (from files_GN.cpp)

@<TRIPOS>ATOM
      1 CAA        15.3322   51.0622   40.9341 C.3         1 B69      -0.0651
      2 CAP        15.3777   51.5075   39.4566 C.3         1 B69      -0.0541
      3 CAQ        15.6241   53.0336   39.2842 C.3         1 B69      -0.0435
      4 CAS        16.0510   53.4216   37.8409 C.3         1 B69      -0.0191
      5 CAV        17.4397   52.9807   37.5383 C.ar        1 B69      -0.0429
      6 CAI        17.7020   51.8912   36.6754 C.ar        1 B69      -0.0600
      7 CAM        19.0136   51.4197   36.4953 C.ar        1 B69      -0.0616
      8 CAH        18.5303   53.6118   38.1860 C.ar        1 B69      -0.0600
      9 CAL        19.8418   53.1485   38.0035 C.ar        1 B69      -0.0616
     10 CAX        20.0917   52.0427   37.1611 C.ar        1 B69      -0.0283
     11 CAY        21.4038   51.5730   36.9734 C.ar        1 B69      -0.0283
     12 CAO        21.8977   50.5072   37.7575 C.ar        1 B69      -0.0616
     13 CAK        23.2016   50.0160   37.5610 C.ar        1 B69      -0.0600
     14 CAN        22.2461   52.1596   36.0066 C.ar        1 B69      -0.0616
     15 CAJ        23.5343   51.6429   35.7880 C.ar        1 B69      -0.0600
     16 CAW        24.0422   50.5822   36.5738 C.ar        1 B69      -0.0429
     17 CAT        25.3725   49.9855   36.2927 C.3         1 B69      -0.0190
     18 CAR        25.2897   48.7543   35.3298 C.3         1 B69      -0.0402
     19 CAU        25.7964   48.9870   33.8640 C.3         1 B69      -0.0165
     20 CAZ        24.8658   48.5379   32.6910 C.3         1 B69       0.1121
     21 PBA        23.5710   49.5685   32.4504 P.3         1 B69       0.0795
     22 OAC        22.6634   49.1143   31.4236 O.co2       1 B69      -0.5610
     23 OAD        22.8067   49.8315   33.6454 O.co2       1 B69      -0.5610
     24 OAB        24.0435   50.8477   31.9714 O.co2       1 B69      -0.5610
     25 SBB        24.3728   46.7846   32.7768 S.o2        1 B69      -0.1731
     26 OAG        22.6990   46.6266   32.9596 O.co2       1 B69      -0.4830
     27 OAF        25.1234   45.9883   34.0677 O.co2       1 B69      -0.4830
     28 OAE        24.8405   46.0122   31.3462 O.co2       1 B69      -0.4830
     29 H1         15.1981   49.9791   40.9864 H           1 B69       0.0230
     30 H2         14.5035   51.5467   41.4556 H           1 B69       0.0230
     31 H3         16.2680   51.3154   41.4316 H           1 B69       0.0230
     32 H4         14.4319   51.2414   38.9734 H           1 B69       0.0264
     33 H5         16.1767   50.9422   38.9680 H           1 B69       0.0264
     34 H6         16.3955   53.3618   39.9899 H           1 B69       0.0287
     35 H7         14.7067   53.5665   39.5417 H           1 B69       0.0287
     36 H8         15.9895   54.5058   37.7265 H           1 B69       0.0427
     37 H9         15.3343   52.9884   37.1362 H           1 B69       0.0427
     38 H10        16.9324   51.4168   36.2002 H           1 B69       0.0558
     39 H11        19.1749   50.6152   35.8854 H           1 B69       0.0600
     40 H12        18.3732   54.4028   38.8171 H           1 B69       0.0558
     41 H13        20.6122   53.6108   38.4963 H           1 B69       0.0600
     42 H14        21.3087   50.0809   38.4805 H           1 B69       0.0600
     43 H15        23.5297   49.2327   38.1355 H           1 B69       0.0558
     44 H16        21.9104   52.9370   35.4324 H           1 B69       0.0600
     45 H17        24.1098   52.0526   35.0610 H           1 B69       0.0558
     46 H18        25.8105   49.6662   37.2414 H           1 B69       0.0427
     47 H19        26.0518   50.7402   35.9002 H           1 B69       0.0427
     48 H20        24.2691   48.3671   35.3024 H           1 B69       0.0288
     49 H21        25.8938   47.9508   35.7710 H           1 B69       0.0288
     50 H22        26.7442   48.4458   33.7591 H           1 B69       0.0298
     51 H23        26.0464   50.0398   33.7222 H           1 B69       0.0298
     52 H24        25.4680   48.6110   31.7798 H           1 B69       0.0695
@<TRIPOS>BOND
     1     1     2   1
     2     2     3   1
     3     3     4   1
     4     4     5   1
     5     5     6  ar
     6     5     8  ar
     7     6     7  ar
     8     7    10  ar
     9     8     9  ar
    10     9    10  ar
    11    10    11   1
    12    11    12  ar
    13    11    14  ar
    14    12    13  ar
    15    13    16  ar
    16    14    15  ar
    17    15    16  ar
    18    16    17   1
    19    17    18   1
    20    18    19   1
    21    19    20   1
    22    20    21   1
    23    20    25   1
    24    21    22  ar
    25    21    23  ar
    26    21    24  ar
    27    25    26  ar
    28    25    27  ar
    29    25    28  ar
    30     1    29   1
    31     1    30   1
    32     1    31   1
    33     2    32   1
    34     2    33   1
    35     3    34   1
    36     3    35   1
    37     4    36   1
    38     4    37   1
    39     6    38   1
    40     7    39   1
    41     8    40   1
    42     9    41   1
    43    12    42   1
    44    13    43   1
    45    14    44   1
    46    15    45   1
    47    17    46   1
    48    17    47   1
    49    18    48   1
    50    18    49   1
    51    19    50   1
    52    19    51   1
    53    20    52   1
@<TRIPOS>SUBSTRUCTURE
     1  B69      1

