@<TRIPOS>MOLECULE
2zcr_ligand_063
    52    53
SMALL
GAST_HUCK
****
This file was generated by PARSER (from files_GN.cpp)

@<TRIPOS>ATOM
      1 CAA        14.4211   56.1135   35.5714 C.3         1 B69      -0.0651
      2 CAP        15.1267   55.0036   36.3794 C.3         1 B69      -0.0541
      3 CAQ        15.2327   55.3176   37.9023 C.3         1 B69      -0.0435
      4 CAS        16.5614   56.0012   38.3404 C.3         1 B69      -0.0191
      5 CAV        17.7658   55.1308   38.2017 C.ar        1 B69      -0.0429
      6 CAI        18.8537   55.5045   37.3784 C.ar        1 B69      -0.0600
      7 CAM        19.9899   54.6809   37.2675 C.ar        1 B69      -0.0616
      8 CAH        17.8488   53.9098   38.9121 C.ar        1 B69      -0.0600
      9 CAL        18.9635   53.0676   38.7698 C.ar        1 B69      -0.0616
     10 CAX        20.0539   53.4490   37.9558 C.ar        1 B69      -0.0283
     11 CAY        21.1959   52.6156   37.8528 C.ar        1 B69      -0.0283
     12 CAO        21.0675   51.2718   37.4375 C.ar        1 B69      -0.0616
     13 CAK        22.1906   50.4301   37.3799 C.ar        1 B69      -0.0600
     14 CAN        22.4788   53.1007   38.1948 C.ar        1 B69      -0.0616
     15 CAJ        23.6029   52.2532   38.1475 C.ar        1 B69      -0.0600
     16 CAW        23.4730   50.9070   37.7424 C.ar        1 B69      -0.0429
     17 CAT        24.6489   49.9944   37.7413 C.3         1 B69      -0.0190
     18 CAR        25.7139   50.3096   36.6549 C.3         1 B69      -0.0402
     19 CAU        26.5957   49.1067   36.1958 C.3         1 B69      -0.0165
     20 CAZ        27.6985   48.5960   37.1899 C.3         1 B69       0.1121
     21 PBA        28.9132   47.7436   36.4071 P.3         1 B69       0.0795
     22 OAC        30.0159   47.4663   37.2919 O.co2       1 B69      -0.5610
     23 OAD        28.4329   46.4917   35.8803 O.co2       1 B69      -0.5610
     24 OAB        29.4825   48.4864   35.3112 O.co2       1 B69      -0.5610
     25 SBB        27.0483   47.6033   38.5799 S.o2        1 B69      -0.1731
     26 OAG        28.0924   46.3515   39.0339 O.co2       1 B69      -0.4830
     27 OAF        25.5739   46.8822   38.1761 O.co2       1 B69      -0.4830
     28 OAE        26.8520   48.6033   39.9280 O.co2       1 B69      -0.4830
     29 H1         14.4126   55.8496   34.5137 H           1 B69       0.0230
     30 H2         14.9412   57.0649   35.6918 H           1 B69       0.0230
     31 H3         13.3884   56.2232   35.9100 H           1 B69       0.0230
     32 H4         16.1179   54.8320   35.9542 H           1 B69       0.0264
     33 H5         14.5587   54.0794   36.2460 H           1 B69       0.0264
     34 H6         15.1090   54.3874   38.4613 H           1 B69       0.0287
     35 H7         14.4017   55.9591   38.2070 H           1 B69       0.0287
     36 H8         16.4780   56.2882   39.3928 H           1 B69       0.0427
     37 H9         16.6767   56.9272   37.7685 H           1 B69       0.0427
     38 H10        18.8315   56.3871   36.8610 H           1 B69       0.0558
     39 H11        20.7618   54.9811   36.6671 H           1 B69       0.0600
     40 H12        17.0928   53.6204   39.5380 H           1 B69       0.0558
     41 H13        18.9804   52.1846   39.2870 H           1 B69       0.0600
     42 H14        20.1547   50.8936   37.1721 H           1 B69       0.0600
     43 H15        22.0640   49.4625   37.0724 H           1 B69       0.0558
     44 H16        22.6004   54.0644   38.5163 H           1 B69       0.0600
     45 H17        24.5149   52.6215   38.4304 H           1 B69       0.0558
     46 H18        24.3006   48.9732   37.5973 H           1 B69       0.0427
     47 H19        25.1126   50.0416   38.7264 H           1 B69       0.0427
     48 H20        26.3621   51.1203   37.0020 H           1 B69       0.0288
     49 H21        25.1901   50.6763   35.7669 H           1 B69       0.0288
     50 H22        27.0789   49.4533   35.2755 H           1 B69       0.0298
     51 H23        25.9499   48.2755   35.8996 H           1 B69       0.0298
     52 H24        28.1753   49.4752   37.6242 H           1 B69       0.0695
@<TRIPOS>BOND
     1     1     2   1
     2     2     3   1
     3     3     4   1
     4     4     5   1
     5     5     6  ar
     6     5     8  ar
     7     6     7  ar
     8     7    10  ar
     9     8     9  ar
    10     9    10  ar
    11    10    11   1
    12    11    12  ar
    13    11    14  ar
    14    12    13  ar
    15    13    16  ar
    16    14    15  ar
    17    15    16  ar
    18    16    17   1
    19    17    18   1
    20    18    19   1
    21    19    20   1
    22    20    21   1
    23    20    25   1
    24    21    22  ar
    25    21    23  ar
    26    21    24  ar
    27    25    26  ar
    28    25    27  ar
    29    25    28  ar
    30     1    29   1
    31     1    30   1
    32     1    31   1
    33     2    32   1
    34     2    33   1
    35     3    34   1
    36     3    35   1
    37     4    36   1
    38     4    37   1
    39     6    38   1
    40     7    39   1
    41     8    40   1
    42     9    41   1
    43    12    42   1
    44    13    43   1
    45    14    44   1
    46    15    45   1
    47    17    46   1
    48    17    47   1
    49    18    48   1
    50    18    49   1
    51    19    50   1
    52    19    51   1
    53    20    52   1
@<TRIPOS>SUBSTRUCTURE
     1  B69      1

