@<TRIPOS>MOLECULE
2zcr_ligand_069
    52    53
SMALL
GAST_HUCK
****
This file was generated by PARSER (from files_GN.cpp)

@<TRIPOS>ATOM
      1 CAA        17.4270   49.0056   35.6844 C.3         1 B69      -0.0651
      2 CAP        16.9580   50.3249   36.3405 C.3         1 B69      -0.0541
      3 CAQ        17.4563   51.6137   35.6223 C.3         1 B69      -0.0435
      4 CAS        18.7603   52.2493   36.1852 C.3         1 B69      -0.0191
      5 CAV        19.9893   51.4060   36.1526 C.ar        1 B69      -0.0429
      6 CAI        20.4875   50.9149   34.9281 C.ar        1 B69      -0.0600
      7 CAM        21.6772   50.1645   34.8840 C.ar        1 B69      -0.0616
      8 CAH        20.7270   51.1454   37.3325 C.ar        1 B69      -0.0600
      9 CAL        21.9261   50.4184   37.2843 C.ar        1 B69      -0.0616
     10 CAX        22.4287   49.9077   36.0564 C.ar        1 B69      -0.0283
     11 CAY        23.6479   49.1516   36.0090 C.ar        1 B69      -0.0283
     12 CAO        24.5774   49.3122   34.9432 C.ar        1 B69      -0.0616
     13 CAK        25.7448   48.5393   34.8749 C.ar        1 B69      -0.0600
     14 CAN        23.9628   48.2003   37.0109 C.ar        1 B69      -0.0616
     15 CAJ        25.1340   47.4316   36.9493 C.ar        1 B69      -0.0600
     16 CAW        26.0416   47.5798   35.8722 C.ar        1 B69      -0.0429
     17 CAT        27.2609   46.7297   35.7843 C.3         1 B69      -0.0190
     18 CAR        28.2979   46.9809   36.9178 C.3         1 B69      -0.0402
     19 CAU        28.9216   48.4054   36.9061 C.3         1 B69      -0.0165
     20 CAZ        29.9875   48.7477   38.0020 C.3         1 B69       0.1121
     21 PBA        31.4948   48.0230   37.8092 P.3         1 B69       0.0795
     22 OAC        32.4246   48.9908   37.2892 O.co2       1 B69      -0.5610
     23 OAD        32.1092   47.5486   39.0245 O.co2       1 B69      -0.5610
     24 OAB        31.5295   46.9464   36.8540 O.co2       1 B69      -0.5610
     25 SBB        29.3252   48.6080   39.6885 S.o2        1 B69      -0.1731
     26 OAG        29.1010   46.9875   40.1136 O.co2       1 B69      -0.4830
     27 OAF        27.8471   49.4154   39.7712 O.co2       1 B69      -0.4830
     28 OAE        30.3955   49.3269   40.7848 O.co2       1 B69      -0.4830
     29 H1         17.0155   48.1547   36.2305 H           1 B69       0.0230
     30 H2         18.5160   48.9298   35.6969 H           1 B69       0.0230
     31 H3         17.0778   48.9514   34.6510 H           1 B69       0.0230
     32 H4         17.2742   50.3372   37.3841 H           1 B69       0.0264
     33 H5         15.8652   50.3181   36.3352 H           1 B69       0.0264
     34 H6         16.6712   52.3678   35.7194 H           1 B69       0.0287
     35 H7         17.5713   51.4240   34.5517 H           1 B69       0.0287
     36 H8         18.5482   52.5811   37.2061 H           1 B69       0.0427
     37 H9         18.9695   53.1527   35.6079 H           1 B69       0.0427
     38 H10        19.9861   51.0955   34.0584 H           1 B69       0.0558
     39 H11        21.9887   49.8003   33.9807 H           1 B69       0.0600
     40 H12        20.4068   51.5053   38.2340 H           1 B69       0.0558
     41 H13        22.4463   50.2779   38.1538 H           1 B69       0.0600
     42 H14        24.4075   50.0030   34.2100 H           1 B69       0.0600
     43 H15        26.3854   48.6765   34.0879 H           1 B69       0.0558
     44 H16        23.3216   48.0397   37.7901 H           1 B69       0.0600
     45 H17        25.3170   46.7478   37.6861 H           1 B69       0.0558
     46 H18        27.7612   46.8603   34.8227 H           1 B69       0.0427
     47 H19        26.9415   45.6842   35.8206 H           1 B69       0.0427
     48 H20        29.0910   46.2453   36.8136 H           1 B69       0.0288
     49 H21        27.8142   46.8040   37.8797 H           1 B69       0.0288
     50 H22        28.1018   49.1230   37.0088 H           1 B69       0.0298
     51 H23        29.3659   48.5815   35.9231 H           1 B69       0.0298
     52 H24        30.1726   49.8171   37.8938 H           1 B69       0.0695
@<TRIPOS>BOND
     1     1     2   1
     2     2     3   1
     3     3     4   1
     4     4     5   1
     5     5     6  ar
     6     5     8  ar
     7     6     7  ar
     8     7    10  ar
     9     8     9  ar
    10     9    10  ar
    11    10    11   1
    12    11    12  ar
    13    11    14  ar
    14    12    13  ar
    15    13    16  ar
    16    14    15  ar
    17    15    16  ar
    18    16    17   1
    19    17    18   1
    20    18    19   1
    21    19    20   1
    22    20    21   1
    23    20    25   1
    24    21    22  ar
    25    21    23  ar
    26    21    24  ar
    27    25    26  ar
    28    25    27  ar
    29    25    28  ar
    30     1    29   1
    31     1    30   1
    32     1    31   1
    33     2    32   1
    34     2    33   1
    35     3    34   1
    36     3    35   1
    37     4    36   1
    38     4    37   1
    39     6    38   1
    40     7    39   1
    41     8    40   1
    42     9    41   1
    43    12    42   1
    44    13    43   1
    45    14    44   1
    46    15    45   1
    47    17    46   1
    48    17    47   1
    49    18    48   1
    50    18    49   1
    51    19    50   1
    52    19    51   1
    53    20    52   1
@<TRIPOS>SUBSTRUCTURE
     1  B69      1

