@<TRIPOS>MOLECULE
2zcr_ligand_084
    52    53
SMALL
GAST_HUCK
****
This file was generated by PARSER (from files_GN.cpp)

@<TRIPOS>ATOM
      1 CAA        14.6336   57.1841   41.9783 C.3         1 B69      -0.0651
      2 CAP        15.2465   56.9872   40.5766 C.3         1 B69      -0.0541
      3 CAQ        14.3269   56.1553   39.6385 C.3         1 B69      -0.0435
      4 CAS        14.6579   56.2986   38.1270 C.3         1 B69      -0.0191
      5 CAV        15.8478   55.5085   37.7135 C.ar        1 B69      -0.0429
      6 CAI        17.1008   56.1420   37.5557 C.ar        1 B69      -0.0600
      7 CAM        18.2477   55.3937   37.2491 C.ar        1 B69      -0.0616
      8 CAH        15.7696   54.1082   37.5458 C.ar        1 B69      -0.0600
      9 CAL        16.9163   53.3544   37.2404 C.ar        1 B69      -0.0616
     10 CAX        18.1742   53.9865   37.1030 C.ar        1 B69      -0.0283
     11 CAY        19.3470   53.2356   36.8127 C.ar        1 B69      -0.0283
     12 CAO        20.1302   53.5410   35.6795 C.ar        1 B69      -0.0616
     13 CAK        21.3151   52.8391   35.4250 C.ar        1 B69      -0.0600
     14 CAN        19.7800   52.2149   37.6886 C.ar        1 B69      -0.0616
     15 CAJ        20.9889   51.5339   37.4503 C.ar        1 B69      -0.0600
     16 CAW        21.7759   51.8425   36.3145 C.ar        1 B69      -0.0429
     17 CAT        23.0609   51.1402   36.0412 C.3         1 B69      -0.0190
     18 CAR        22.9684   50.1573   34.8402 C.3         1 B69      -0.0402
     19 CAU        22.3023   48.7998   35.2102 C.3         1 B69      -0.0165
     20 CAZ        21.6690   47.9744   34.0451 C.3         1 B69       0.1121
     21 PBA        22.6928   47.6420   32.7682 P.3         1 B69       0.0795
     22 OAC        22.5864   48.6126   31.7034 O.co2       1 B69      -0.5610
     23 OAD        24.0666   47.6037   33.2087 O.co2       1 B69      -0.5610
     24 OAB        22.4158   46.3420   32.2090 O.co2       1 B69      -0.5610
     25 SBB        20.0927   48.6857   33.4672 S.o2        1 B69      -0.1731
     26 OAG        19.2410   49.3182   34.7846 O.co2       1 B69      -0.4830
     27 OAF        19.1508   47.4731   32.7495 O.co2       1 B69      -0.4830
     28 OAE        20.3479   49.9174   32.3293 O.co2       1 B69      -0.4830
     29 H1         15.3163   57.7558   42.6107 H           1 B69       0.0230
     30 H2         14.4401   56.2203   42.4598 H           1 B69       0.0230
     31 H3         13.6866   57.7296   41.9063 H           1 B69       0.0230
     32 H4         16.2081   56.4798   40.6820 H           1 B69       0.0264
     33 H5         15.4276   57.9697   40.1301 H           1 B69       0.0264
     34 H6         13.2887   56.4755   39.7800 H           1 B69       0.0287
     35 H7         14.3887   55.1018   39.9147 H           1 B69       0.0287
     36 H8         14.7981   57.3623   37.9008 H           1 B69       0.0427
     37 H9         13.7969   55.9657   37.5307 H           1 B69       0.0427
     38 H10        17.1972   57.1516   37.6826 H           1 B69       0.0558
     39 H11        19.1483   55.8731   37.1683 H           1 B69       0.0600
     40 H12        14.8692   53.6336   37.6435 H           1 B69       0.0558
     41 H13        16.8211   52.3406   37.1169 H           1 B69       0.0600
     42 H14        19.8395   54.2750   35.0263 H           1 B69       0.0600
     43 H15        21.8525   53.0673   34.5875 H           1 B69       0.0558
     44 H16        19.2381   51.9847   38.5239 H           1 B69       0.0600
     45 H17        21.2905   50.8157   38.1087 H           1 B69       0.0558
     46 H18        23.4162   50.6056   36.9285 H           1 B69       0.0427
     47 H19        23.8276   51.8935   35.8169 H           1 B69       0.0427
     48 H20        23.9810   49.9530   34.4766 H           1 B69       0.0288
     49 H21        22.4299   50.6325   34.0242 H           1 B69       0.0288
     50 H22        21.5216   48.9747   35.9525 H           1 B69       0.0298
     51 H23        23.0573   48.1793   35.6988 H           1 B69       0.0298
     52 H24        21.4010   47.0033   34.4708 H           1 B69       0.0695
@<TRIPOS>BOND
     1     1     2   1
     2     2     3   1
     3     3     4   1
     4     4     5   1
     5     5     6  ar
     6     5     8  ar
     7     6     7  ar
     8     7    10  ar
     9     8     9  ar
    10     9    10  ar
    11    10    11   1
    12    11    12  ar
    13    11    14  ar
    14    12    13  ar
    15    13    16  ar
    16    14    15  ar
    17    15    16  ar
    18    16    17   1
    19    17    18   1
    20    18    19   1
    21    19    20   1
    22    20    21   1
    23    20    25   1
    24    21    22  ar
    25    21    23  ar
    26    21    24  ar
    27    25    26  ar
    28    25    27  ar
    29    25    28  ar
    30     1    29   1
    31     1    30   1
    32     1    31   1
    33     2    32   1
    34     2    33   1
    35     3    34   1
    36     3    35   1
    37     4    36   1
    38     4    37   1
    39     6    38   1
    40     7    39   1
    41     8    40   1
    42     9    41   1
    43    12    42   1
    44    13    43   1
    45    14    44   1
    46    15    45   1
    47    17    46   1
    48    17    47   1
    49    18    48   1
    50    18    49   1
    51    19    50   1
    52    19    51   1
    53    20    52   1
@<TRIPOS>SUBSTRUCTURE
     1  B69      1

