@<TRIPOS>MOLECULE
2zcr_ligand_005
    52    53
SMALL
GAST_HUCK
****
This file was generated by PARSER (from files_GN.cpp)

@<TRIPOS>ATOM
      1 CAA        13.8595   55.6565   36.1358 C.3         1 B69      -0.0651
      2 CAP        15.1936   56.2077   36.6870 C.3         1 B69      -0.0541
      3 CAQ        16.3696   56.1492   35.6686 C.3         1 B69      -0.0435
      4 CAS        17.1107   54.7783   35.5569 C.3         1 B69      -0.0191
      5 CAV        18.3010   54.6665   36.4436 C.ar        1 B69      -0.0429
      6 CAI        18.1596   54.3891   37.8237 C.ar        1 B69      -0.0600
      7 CAM        19.2862   54.3304   38.6646 C.ar        1 B69      -0.0616
      8 CAH        19.6048   54.8474   35.9216 C.ar        1 B69      -0.0600
      9 CAL        20.7307   54.7712   36.7553 C.ar        1 B69      -0.0616
     10 CAX        20.5883   54.5253   38.1397 C.ar        1 B69      -0.0283
     11 CAY        21.7203   54.5257   38.9913 C.ar        1 B69      -0.0283
     12 CAO        21.7602   55.4107   40.0924 C.ar        1 B69      -0.0616
     13 CAK        22.8927   55.4646   40.9249 C.ar        1 B69      -0.0600
     14 CAN        22.8373   53.6933   38.7449 C.ar        1 B69      -0.0616
     15 CAJ        23.9604   53.7429   39.5832 C.ar        1 B69      -0.0600
     16 CAW        24.0165   54.6412   40.6806 C.ar        1 B69      -0.0429
     17 CAT        25.2653   54.6886   41.5029 C.3         1 B69      -0.0190
     18 CAR        25.3702   55.7602   42.6315 C.3         1 B69      -0.0402
     19 CAU        25.3520   57.2350   42.1118 C.3         1 B69      -0.0165
     20 CAZ        26.5575   58.2113   42.3853 C.3         1 B69       0.1121
     21 PBA        26.6374   59.4491   41.2544 P.3         1 B69       0.0795
     22 OAC        27.5078   60.5306   41.6407 O.co2       1 B69      -0.5610
     23 OAD        27.0884   58.9388   39.9809 O.co2       1 B69      -0.5610
     24 OAB        25.3400   60.0220   40.9879 O.co2       1 B69      -0.5610
     25 SBB        28.1740   57.4045   42.5589 S.o2        1 B69      -0.1731
     26 OAG        28.3097   56.1093   41.4777 O.co2       1 B69      -0.4830
     27 OAF        28.3273   56.8443   44.1499 O.co2       1 B69      -0.4830
     28 OAE        29.4552   58.4779   42.2749 O.co2       1 B69      -0.4830
     29 H1         13.0960   55.6894   36.9147 H           1 B69       0.0230
     30 H2         13.9783   54.6240   35.8066 H           1 B69       0.0230
     31 H3         13.5187   56.2606   35.2926 H           1 B69       0.0230
     32 H4         15.4570   55.6635   37.5944 H           1 B69       0.0264
     33 H5         15.0301   57.2528   36.9680 H           1 B69       0.0264
     34 H6         17.0963   56.9253   35.9295 H           1 B69       0.0287
     35 H7         15.9782   56.4179   34.6829 H           1 B69       0.0287
     36 H8         17.4312   54.6600   34.5184 H           1 B69       0.0427
     37 H9         16.4221   53.9530   35.7526 H           1 B69       0.0427
     38 H10        17.2371   54.2271   38.2323 H           1 B69       0.0558
     39 H11        19.1543   54.1436   39.6637 H           1 B69       0.0600
     40 H12        19.7422   55.0513   34.9339 H           1 B69       0.0558
     41 H13        21.6560   54.9323   36.3560 H           1 B69       0.0600
     42 H14        20.9810   56.0534   40.2760 H           1 B69       0.0600
     43 H15        22.8874   56.1308   41.6938 H           1 B69       0.0558
     44 H16        22.8300   53.0423   37.9544 H           1 B69       0.0600
     45 H17        24.7495   53.1351   39.3810 H           1 B69       0.0558
     46 H18        26.1120   54.8599   40.8324 H           1 B69       0.0427
     47 H19        25.4055   53.6978   41.9443 H           1 B69       0.0427
     48 H20        26.2819   55.5723   43.2090 H           1 B69       0.0288
     49 H21        24.5288   55.5994   43.3144 H           1 B69       0.0288
     50 H22        24.4688   57.7137   42.5374 H           1 B69       0.0298
     51 H23        25.1835   57.2013   41.0346 H           1 B69       0.0298
     52 H24        26.3720   58.6979   43.3501 H           1 B69       0.0695
@<TRIPOS>BOND
     1     1     2   1
     2     2     3   1
     3     3     4   1
     4     4     5   1
     5     5     6  ar
     6     5     8  ar
     7     6     7  ar
     8     7    10  ar
     9     8     9  ar
    10     9    10  ar
    11    10    11   1
    12    11    12  ar
    13    11    14  ar
    14    12    13  ar
    15    13    16  ar
    16    14    15  ar
    17    15    16  ar
    18    16    17   1
    19    17    18   1
    20    18    19   1
    21    19    20   1
    22    20    21   1
    23    20    25   1
    24    21    22  ar
    25    21    23  ar
    26    21    24  ar
    27    25    26  ar
    28    25    27  ar
    29    25    28  ar
    30     1    29   1
    31     1    30   1
    32     1    31   1
    33     2    32   1
    34     2    33   1
    35     3    34   1
    36     3    35   1
    37     4    36   1
    38     4    37   1
    39     6    38   1
    40     7    39   1
    41     8    40   1
    42     9    41   1
    43    12    42   1
    44    13    43   1
    45    14    44   1
    46    15    45   1
    47    17    46   1
    48    17    47   1
    49    18    48   1
    50    18    49   1
    51    19    50   1
    52    19    51   1
    53    20    52   1
@<TRIPOS>SUBSTRUCTURE
     1  B69      1

