@<TRIPOS>MOLECULE
2zcr_ligand_002
    52    53
SMALL
GAST_HUCK
****
This file was generated by PARSER (from files_GN.cpp)

@<TRIPOS>ATOM
      1 CAA        18.0431   50.3759   34.4038 C.3         1 B69      -0.0651
      2 CAP        19.5214   50.4110   33.9559 C.3         1 B69      -0.0541
      3 CAQ        20.4138   49.3942   34.7235 C.3         1 B69      -0.0435
      4 CAS        21.9343   49.7326   34.7464 C.3         1 B69      -0.0191
      5 CAV        22.3145   50.6799   35.8363 C.ar        1 B69      -0.0429
      6 CAI        23.0524   50.2363   36.9585 C.ar        1 B69      -0.0600
      7 CAM        23.3546   51.1141   38.0178 C.ar        1 B69      -0.0616
      8 CAH        21.9218   52.0335   35.7971 C.ar        1 B69      -0.0600
      9 CAL        22.2029   52.9043   36.8694 C.ar        1 B69      -0.0616
     10 CAX        22.9267   52.4664   38.0082 C.ar        1 B69      -0.0283
     11 CAY        23.2294   53.3651   39.0849 C.ar        1 B69      -0.0283
     12 CAO        22.3392   54.3961   39.4697 C.ar        1 B69      -0.0616
     13 CAK        22.6589   55.3045   40.5000 C.ar        1 B69      -0.0600
     14 CAN        24.4453   53.2521   39.8107 C.ar        1 B69      -0.0616
     15 CAJ        24.7544   54.1401   40.8517 C.ar        1 B69      -0.0600
     16 CAW        23.8882   55.2028   41.1823 C.ar        1 B69      -0.0429
     17 CAT        24.2805   56.1558   42.2596 C.3         1 B69      -0.0190
     18 CAR        25.5645   56.9899   41.9297 C.3         1 B69      -0.0402
     19 CAU        26.3261   57.4480   43.2078 C.3         1 B69      -0.0165
     20 CAZ        27.8044   57.9945   43.1058 C.3         1 B69       0.1121
     21 PBA        28.0314   59.5870   43.5324 P.3         1 B69       0.0795
     22 OAC        29.3157   59.7401   44.1775 O.co2       1 B69      -0.5610
     23 OAD        28.0124   60.5244   42.4323 O.co2       1 B69      -0.5610
     24 OAB        27.0732   60.0787   44.4956 O.co2       1 B69      -0.5610
     25 SBB        28.7051   57.6603   41.5663 S.o2        1 B69      -0.1731
     26 OAG        28.2589   58.7483   40.3480 O.co2       1 B69      -0.4830
     27 OAF        28.3514   56.0805   41.0916 O.co2       1 B69      -0.4830
     28 OAE        30.3752   57.7889   41.8320 O.co2       1 B69      -0.4830
     29 H1         17.4748   51.1136   33.8345 H           1 B69       0.0230
     30 H2         17.9592   50.6236   35.4637 H           1 B69       0.0230
     31 H3         17.6122   49.3877   34.2338 H           1 B69       0.0230
     32 H4         19.8841   51.4258   34.1148 H           1 B69       0.0264
     33 H5         19.5737   50.2016   32.8823 H           1 B69       0.0264
     34 H6         20.2819   48.4171   34.2501 H           1 B69       0.0287
     35 H7         20.0582   49.2942   35.7524 H           1 B69       0.0287
     36 H8         22.2514   50.1325   33.7797 H           1 B69       0.0427
     37 H9         22.4819   48.7957   34.8793 H           1 B69       0.0427
     38 H10        23.3643   49.2626   37.0216 H           1 B69       0.0558
     39 H11        23.8718   50.7358   38.8158 H           1 B69       0.0600
     40 H12        21.4264   52.4092   34.9832 H           1 B69       0.0558
     41 H13        21.8947   53.8747   36.7876 H           1 B69       0.0600
     42 H14        21.4301   54.4972   39.0122 H           1 B69       0.0600
     43 H15        21.9959   56.0431   40.7377 H           1 B69       0.0558
     44 H16        25.1354   52.5376   39.5708 H           1 B69       0.0600
     45 H17        25.6402   54.0181   41.3515 H           1 B69       0.0558
     46 H18        24.4392   55.5559   43.1553 H           1 B69       0.0427
     47 H19        23.4698   56.8574   42.4944 H           1 B69       0.0427
     48 H20        25.2842   57.8650   41.3400 H           1 B69       0.0288
     49 H21        26.2531   56.3820   41.3163 H           1 B69       0.0288
     50 H22        26.3646   56.5928   43.8814 H           1 B69       0.0298
     51 H23        25.6758   58.1745   43.7126 H           1 B69       0.0298
     52 H24        28.3721   57.4349   43.8573 H           1 B69       0.0695
@<TRIPOS>BOND
     1     1     2   1
     2     2     3   1
     3     3     4   1
     4     4     5   1
     5     5     6  ar
     6     5     8  ar
     7     6     7  ar
     8     7    10  ar
     9     8     9  ar
    10     9    10  ar
    11    10    11   1
    12    11    12  ar
    13    11    14  ar
    14    12    13  ar
    15    13    16  ar
    16    14    15  ar
    17    15    16  ar
    18    16    17   1
    19    17    18   1
    20    18    19   1
    21    19    20   1
    22    20    21   1
    23    20    25   1
    24    21    22  ar
    25    21    23  ar
    26    21    24  ar
    27    25    26  ar
    28    25    27  ar
    29    25    28  ar
    30     1    29   1
    31     1    30   1
    32     1    31   1
    33     2    32   1
    34     2    33   1
    35     3    34   1
    36     3    35   1
    37     4    36   1
    38     4    37   1
    39     6    38   1
    40     7    39   1
    41     8    40   1
    42     9    41   1
    43    12    42   1
    44    13    43   1
    45    14    44   1
    46    15    45   1
    47    17    46   1
    48    17    47   1
    49    18    48   1
    50    18    49   1
    51    19    50   1
    52    19    51   1
    53    20    52   1
@<TRIPOS>SUBSTRUCTURE
     1  B69      1

