@<TRIPOS>MOLECULE
2zcr_ligand_088
    52    53
SMALL
GAST_HUCK
****
This file was generated by PARSER (from files_GN.cpp)

@<TRIPOS>ATOM
      1 CAA        20.0388   56.1221   34.9453 C.3         1 B69      -0.0651
      2 CAP        20.5421   55.1873   36.0781 C.3         1 B69      -0.0541
      3 CAQ        19.7588   55.3852   37.4031 C.3         1 B69      -0.0435
      4 CAS        20.4573   54.9294   38.7191 C.3         1 B69      -0.0191
      5 CAV        21.5502   53.9279   38.6073 C.ar        1 B69      -0.0429
      6 CAI        21.3332   52.6978   37.9396 C.ar        1 B69      -0.0600
      7 CAM        22.3734   51.7492   37.8266 C.ar        1 B69      -0.0616
      8 CAH        22.8107   54.1511   39.2153 C.ar        1 B69      -0.0600
      9 CAL        23.8483   53.2045   39.1045 C.ar        1 B69      -0.0616
     10 CAX        23.6451   52.0030   38.3924 C.ar        1 B69      -0.0283
     11 CAY        24.6980   51.0749   38.2191 C.ar        1 B69      -0.0283
     12 CAO        25.4607   51.0949   37.0326 C.ar        1 B69      -0.0616
     13 CAK        26.4582   50.1263   36.8151 C.ar        1 B69      -0.0600
     14 CAN        24.9765   50.1034   39.2058 C.ar        1 B69      -0.0616
     15 CAJ        25.9828   49.1445   38.9857 C.ar        1 B69      -0.0600
     16 CAW        26.7340   49.1391   37.7887 C.ar        1 B69      -0.0429
     17 CAT        27.7785   48.1059   37.5623 C.3         1 B69      -0.0190
     18 CAR        29.1353   48.5027   38.2132 C.3         1 B69      -0.0402
     19 CAU        30.2704   47.4566   38.0184 C.3         1 B69      -0.0165
     20 CAZ        30.1791   46.1373   38.8719 C.3         1 B69       0.1121
     21 PBA        30.7348   46.2915   40.4493 P.3         1 B69       0.0795
     22 OAC        32.1386   46.6114   40.4979 O.co2       1 B69      -0.5610
     23 OAD        30.0295   47.3184   41.1727 O.co2       1 B69      -0.5610
     24 OAB        30.5434   45.0747   41.1963 O.co2       1 B69      -0.5610
     25 SBB        31.0736   44.7907   38.0313 S.o2        1 B69      -0.1731
     26 OAG        30.3528   44.5036   36.5258 O.co2       1 B69      -0.4830
     27 OAF        31.0073   43.3614   38.9365 O.co2       1 B69      -0.4830
     28 OAE        32.6919   45.2327   37.7993 O.co2       1 B69      -0.4830
     29 H1         20.5192   55.8621   33.9949 H           1 B69       0.0230
     30 H2         20.2872   57.1667   35.1828 H           1 B69       0.0230
     31 H3         18.9501   56.0470   34.8092 H           1 B69       0.0230
     32 H4         21.6110   55.3718   36.2379 H           1 B69       0.0264
     33 H5         20.4290   54.1460   35.7445 H           1 B69       0.0264
     34 H6         18.8154   54.8498   37.2930 H           1 B69       0.0287
     35 H7         19.5069   56.4425   37.5040 H           1 B69       0.0287
     36 H8         19.6877   54.5228   39.3736 H           1 B69       0.0427
     37 H9         20.8360   55.8235   39.2117 H           1 B69       0.0427
     38 H10        20.4214   52.4966   37.5111 H           1 B69       0.0558
     39 H11        22.1954   50.8751   37.3155 H           1 B69       0.0600
     40 H12        22.9931   55.0179   39.7303 H           1 B69       0.0558
     41 H13        24.7514   53.4025   39.5489 H           1 B69       0.0600
     42 H14        25.2812   51.8021   36.3136 H           1 B69       0.0600
     43 H15        26.9851   50.1538   35.9402 H           1 B69       0.0558
     44 H16        24.4339   50.0758   40.0728 H           1 B69       0.0600
     45 H17        26.1624   48.4474   39.7111 H           1 B69       0.0558
     46 H18        27.9324   47.9558   36.4908 H           1 B69       0.0427
     47 H19        27.4424   47.1476   37.9677 H           1 B69       0.0427
     48 H20        29.0008   48.6937   39.2824 H           1 B69       0.0288
     49 H21        29.4690   49.4389   37.7489 H           1 B69       0.0288
     50 H22        31.2308   47.9398   38.2188 H           1 B69       0.0298
     51 H23        30.2851   47.1996   36.9573 H           1 B69       0.0298
     52 H24        29.1336   45.8210   38.9254 H           1 B69       0.0695
@<TRIPOS>BOND
     1     1     2   1
     2     2     3   1
     3     3     4   1
     4     4     5   1
     5     5     6  ar
     6     5     8  ar
     7     6     7  ar
     8     7    10  ar
     9     8     9  ar
    10     9    10  ar
    11    10    11   1
    12    11    12  ar
    13    11    14  ar
    14    12    13  ar
    15    13    16  ar
    16    14    15  ar
    17    15    16  ar
    18    16    17   1
    19    17    18   1
    20    18    19   1
    21    19    20   1
    22    20    21   1
    23    20    25   1
    24    21    22  ar
    25    21    23  ar
    26    21    24  ar
    27    25    26  ar
    28    25    27  ar
    29    25    28  ar
    30     1    29   1
    31     1    30   1
    32     1    31   1
    33     2    32   1
    34     2    33   1
    35     3    34   1
    36     3    35   1
    37     4    36   1
    38     4    37   1
    39     6    38   1
    40     7    39   1
    41     8    40   1
    42     9    41   1
    43    12    42   1
    44    13    43   1
    45    14    44   1
    46    15    45   1
    47    17    46   1
    48    17    47   1
    49    18    48   1
    50    18    49   1
    51    19    50   1
    52    19    51   1
    53    20    52   1
@<TRIPOS>SUBSTRUCTURE
     1  B69      1

