@<TRIPOS>MOLECULE
2zcr_ligand_011
    52    53
SMALL
GAST_HUCK
****
This file was generated by PARSER (from files_GN.cpp)

@<TRIPOS>ATOM
      1 CAA        20.8789   55.0577   39.1747 C.3         1 B69      -0.0651
      2 CAP        21.9340   54.1564   38.4807 C.3         1 B69      -0.0541
      3 CAQ        23.3117   54.0580   39.1998 C.3         1 B69      -0.0435
      4 CAS        23.2759   53.9665   40.7588 C.3         1 B69      -0.0191
      5 CAV        24.1984   54.9391   41.4032 C.ar        1 B69      -0.0429
      6 CAI        25.4776   54.5704   41.8780 C.ar        1 B69      -0.0600
      7 CAM        26.3165   55.5176   42.4906 C.ar        1 B69      -0.0616
      8 CAH        23.7897   56.2846   41.5451 C.ar        1 B69      -0.0600
      9 CAL        24.6269   57.2345   42.1465 C.ar        1 B69      -0.0616
     10 CAX        25.8954   56.8573   42.6440 C.ar        1 B69      -0.0283
     11 CAY        26.6941   57.7998   43.3381 C.ar        1 B69      -0.0283
     12 CAO        27.1312   58.9904   42.7219 C.ar        1 B69      -0.0616
     13 CAK        27.9111   59.9187   43.4341 C.ar        1 B69      -0.0600
     14 CAN        27.0216   57.5812   44.6947 C.ar        1 B69      -0.0616
     15 CAJ        27.7655   58.5314   45.4179 C.ar        1 B69      -0.0600
     16 CAW        28.2525   59.7044   44.7914 C.ar        1 B69      -0.0429
     17 CAT        29.0126   60.7344   45.5670 C.3         1 B69      -0.0190
     18 CAR        30.2872   60.2640   46.3426 C.3         1 B69      -0.0402
     19 CAU        30.1122   59.3528   47.6000 C.3         1 B69      -0.0165
     20 CAZ        28.9915   59.7687   48.6124 C.3         1 B69       0.1121
     21 PBA        29.3718   61.0832   49.5857 P.3         1 B69       0.0795
     22 OAC        29.6611   62.2509   48.7939 O.co2       1 B69      -0.5610
     23 OAD        28.2729   61.4574   50.4443 O.co2       1 B69      -0.5610
     24 OAB        30.5153   60.8243   50.4258 O.co2       1 B69      -0.5610
     25 SBB        28.4436   58.3701   49.6432 S.o2        1 B69      -0.1731
     26 OAG        29.4557   58.1656   50.9861 O.co2       1 B69      -0.4830
     27 OAF        28.4156   56.9410   48.7414 O.co2       1 B69      -0.4830
     28 OAE        26.8653   58.6883   50.1758 O.co2       1 B69      -0.4830
     29 H1         20.0890   55.3130   38.4623 H           1 B69       0.0230
     30 H2         21.3295   55.9863   39.5299 H           1 B69       0.0230
     31 H3         20.4300   54.5370   40.0220 H           1 B69       0.0230
     32 H4         22.1165   54.5689   37.4795 H           1 B69       0.0264
     33 H5         21.5165   53.1518   38.3466 H           1 B69       0.0264
     34 H6         23.9103   54.9131   38.8734 H           1 B69       0.0287
     35 H7         23.8234   53.1690   38.8141 H           1 B69       0.0287
     36 H8         23.5218   52.9436   41.0542 H           1 B69       0.0427
     37 H9         22.2707   54.1626   41.1352 H           1 B69       0.0427
     38 H10        25.8024   53.6085   41.7874 H           1 B69       0.0558
     39 H11        27.2408   55.2276   42.8214 H           1 B69       0.0600
     40 H12        22.8697   56.5839   41.2111 H           1 B69       0.0558
     41 H13        24.2972   58.1995   42.2398 H           1 B69       0.0600
     42 H14        26.8868   59.1874   41.7466 H           1 B69       0.0600
     43 H15        28.2069   60.7744   42.9548 H           1 B69       0.0558
     44 H16        26.6899   56.7432   45.1749 H           1 B69       0.0600
     45 H17        27.9291   58.3698   46.4072 H           1 B69       0.0558
     46 H18        28.3242   61.2299   46.2562 H           1 B69       0.0427
     47 H19        29.3548   61.5221   44.8798 H           1 B69       0.0427
     48 H20        30.8363   61.1622   46.6523 H           1 B69       0.0288
     49 H21        30.9378   59.7422   45.6338 H           1 B69       0.0288
     50 H22        31.0698   59.3141   48.1212 H           1 B69       0.0298
     51 H23        29.9273   58.3456   47.2397 H           1 B69       0.0298
     52 H24        28.1022   60.0513   48.0476 H           1 B69       0.0695
@<TRIPOS>BOND
     1     1     2   1
     2     2     3   1
     3     3     4   1
     4     4     5   1
     5     5     6  ar
     6     5     8  ar
     7     6     7  ar
     8     7    10  ar
     9     8     9  ar
    10     9    10  ar
    11    10    11   1
    12    11    12  ar
    13    11    14  ar
    14    12    13  ar
    15    13    16  ar
    16    14    15  ar
    17    15    16  ar
    18    16    17   1
    19    17    18   1
    20    18    19   1
    21    19    20   1
    22    20    21   1
    23    20    25   1
    24    21    22  ar
    25    21    23  ar
    26    21    24  ar
    27    25    26  ar
    28    25    27  ar
    29    25    28  ar
    30     1    29   1
    31     1    30   1
    32     1    31   1
    33     2    32   1
    34     2    33   1
    35     3    34   1
    36     3    35   1
    37     4    36   1
    38     4    37   1
    39     6    38   1
    40     7    39   1
    41     8    40   1
    42     9    41   1
    43    12    42   1
    44    13    43   1
    45    14    44   1
    46    15    45   1
    47    17    46   1
    48    17    47   1
    49    18    48   1
    50    18    49   1
    51    19    50   1
    52    19    51   1
    53    20    52   1
@<TRIPOS>SUBSTRUCTURE
     1  B69      1

