@<TRIPOS>MOLECULE
2zcr_ligand_083
    52    53
SMALL
GAST_HUCK
****
This file was generated by PARSER (from files_GN.cpp)

@<TRIPOS>ATOM
      1 CAA        17.9929   54.6089   39.0302 C.3         1 B69      -0.0651
      2 CAP        18.0829   54.0996   37.5738 C.3         1 B69      -0.0541
      3 CAQ        18.6770   55.1127   36.5550 C.3         1 B69      -0.0435
      4 CAS        20.1510   55.5497   36.7914 C.3         1 B69      -0.0191
      5 CAV        21.1130   54.4204   36.9399 C.ar        1 B69      -0.0429
      6 CAI        21.7665   54.1827   38.1732 C.ar        1 B69      -0.0600
      7 CAM        22.6457   53.0968   38.3289 C.ar        1 B69      -0.0616
      8 CAH        21.3855   53.5509   35.8579 C.ar        1 B69      -0.0600
      9 CAL        22.2736   52.4670   36.0052 C.ar        1 B69      -0.0616
     10 CAX        22.8982   52.2250   37.2477 C.ar        1 B69      -0.0283
     11 CAY        23.7443   51.1078   37.4170 C.ar        1 B69      -0.0283
     12 CAO        25.0851   51.1352   36.9672 C.ar        1 B69      -0.0616
     13 CAK        25.9151   50.0106   37.1351 C.ar        1 B69      -0.0600
     14 CAN        23.2552   49.9449   38.0481 C.ar        1 B69      -0.0616
     15 CAJ        24.0842   48.8198   38.2138 C.ar        1 B69      -0.0600
     16 CAW        25.4256   48.8369   37.7556 C.ar        1 B69      -0.0429
     17 CAT        26.3024   47.6386   37.9017 C.3         1 B69      -0.0190
     18 CAR        26.6139   46.9519   36.5357 C.3         1 B69      -0.0402
     19 CAU        26.9826   45.4355   36.5818 C.3         1 B69      -0.0165
     20 CAZ        28.4935   45.0535   36.7871 C.3         1 B69       0.1121
     21 PBA        28.9064   43.6539   35.9634 P.3         1 B69       0.0795
     22 OAC        30.2896   43.2659   36.0961 O.co2       1 B69      -0.5610
     23 OAD        28.0920   42.5393   36.3796 O.co2       1 B69      -0.5610
     24 OAB        28.6856   43.8128   34.5497 O.co2       1 B69      -0.5610
     25 SBB        28.9553   44.8528   38.5399 S.o2        1 B69      -0.1731
     26 OAG        27.9970   43.6490   39.2467 O.co2       1 B69      -0.4830
     27 OAF        28.7600   46.2883   39.3980 O.co2       1 B69      -0.4830
     28 OAE        30.5851   44.4054   38.6608 O.co2       1 B69      -0.4830
     29 H1         17.4938   53.8674   39.6592 H           1 B69       0.0230
     30 H2         17.4227   55.5359   39.0776 H           1 B69       0.0230
     31 H3         18.9852   54.7881   39.4421 H           1 B69       0.0230
     32 H4         17.0691   53.8455   37.2512 H           1 B69       0.0264
     33 H5         18.6669   53.1781   37.5605 H           1 B69       0.0264
     34 H6         18.0497   56.0072   36.5530 H           1 B69       0.0287
     35 H7         18.6036   54.6694   35.5601 H           1 B69       0.0287
     36 H8         20.1783   56.1974   37.6723 H           1 B69       0.0427
     37 H9         20.4748   56.1659   35.9476 H           1 B69       0.0427
     38 H10        21.5954   54.7915   38.9782 H           1 B69       0.0558
     39 H11        23.0952   52.9394   39.2381 H           1 B69       0.0600
     40 H12        20.9411   53.7053   34.9502 H           1 B69       0.0558
     41 H13        22.4510   51.8521   35.2046 H           1 B69       0.0600
     42 H14        25.4654   51.9751   36.5223 H           1 B69       0.0600
     43 H15        26.8816   50.0506   36.8004 H           1 B69       0.0558
     44 H16        22.2881   49.9010   38.3791 H           1 B69       0.0600
     45 H17        23.6981   47.9852   38.6618 H           1 B69       0.0558
     46 H18        25.8308   46.9056   38.5661 H           1 B69       0.0427
     47 H19        27.2342   47.9590   38.3732 H           1 B69       0.0427
     48 H20        27.4044   47.5079   36.0191 H           1 B69       0.0288
     49 H21        25.7174   47.0389   35.9091 H           1 B69       0.0288
     50 H22        26.6402   45.0424   35.6200 H           1 B69       0.0298
     51 H23        26.3689   44.9287   37.3266 H           1 B69       0.0298
     52 H24        29.1194   45.8515   36.3778 H           1 B69       0.0695
@<TRIPOS>BOND
     1     1     2   1
     2     2     3   1
     3     3     4   1
     4     4     5   1
     5     5     6  ar
     6     5     8  ar
     7     6     7  ar
     8     7    10  ar
     9     8     9  ar
    10     9    10  ar
    11    10    11   1
    12    11    12  ar
    13    11    14  ar
    14    12    13  ar
    15    13    16  ar
    16    14    15  ar
    17    15    16  ar
    18    16    17   1
    19    17    18   1
    20    18    19   1
    21    19    20   1
    22    20    21   1
    23    20    25   1
    24    21    22  ar
    25    21    23  ar
    26    21    24  ar
    27    25    26  ar
    28    25    27  ar
    29    25    28  ar
    30     1    29   1
    31     1    30   1
    32     1    31   1
    33     2    32   1
    34     2    33   1
    35     3    34   1
    36     3    35   1
    37     4    36   1
    38     4    37   1
    39     6    38   1
    40     7    39   1
    41     8    40   1
    42     9    41   1
    43    12    42   1
    44    13    43   1
    45    14    44   1
    46    15    45   1
    47    17    46   1
    48    17    47   1
    49    18    48   1
    50    18    49   1
    51    19    50   1
    52    19    51   1
    53    20    52   1
@<TRIPOS>SUBSTRUCTURE
     1  B69      1

