@<TRIPOS>MOLECULE
2zcr_ligand_023
    52    53
SMALL
GAST_HUCK
****
This file was generated by PARSER (from files_GN.cpp)

@<TRIPOS>ATOM
      1 CAA        17.8609   50.9405   34.8454 C.3         1 B69      -0.0651
      2 CAP        19.2753   50.8495   35.4559 C.3         1 B69      -0.0541
      3 CAQ        19.4124   51.5125   36.8539 C.3         1 B69      -0.0435
      4 CAS        19.5178   53.0725   36.8288 C.3         1 B69      -0.0191
      5 CAV        20.4920   53.6118   37.8186 C.ar        1 B69      -0.0429
      6 CAI        21.8636   53.3086   37.6717 C.ar        1 B69      -0.0600
      7 CAM        22.8069   53.7773   38.5983 C.ar        1 B69      -0.0616
      8 CAH        20.0956   54.4250   38.9033 C.ar        1 B69      -0.0600
      9 CAL        21.0441   54.8978   39.8300 C.ar        1 B69      -0.0616
     10 CAX        22.4209   54.5783   39.7023 C.ar        1 B69      -0.0283
     11 CAY        23.3997   55.0664   40.6261 C.ar        1 B69      -0.0283
     12 CAO        23.2843   56.3559   41.2024 C.ar        1 B69      -0.0616
     13 CAK        24.2668   56.8515   42.0764 C.ar        1 B69      -0.0600
     14 CAN        24.5360   54.2904   40.9682 C.ar        1 B69      -0.0616
     15 CAJ        25.5363   54.8016   41.8103 C.ar        1 B69      -0.0600
     16 CAW        25.4248   56.0978   42.3624 C.ar        1 B69      -0.0429
     17 CAT        26.4980   56.6470   43.2350 C.3         1 B69      -0.0190
     18 CAR        27.2071   57.9248   42.6886 C.3         1 B69      -0.0402
     19 CAU        28.7038   58.0543   43.1044 C.3         1 B69      -0.0165
     20 CAZ        29.0262   57.8975   44.6302 C.3         1 B69       0.1121
     21 PBA        28.6615   59.2349   45.5752 P.3         1 B69       0.0795
     22 OAC        27.5899   60.0262   45.0325 O.co2       1 B69      -0.5610
     23 OAD        28.2356   58.8141   46.8788 O.co2       1 B69      -0.5610
     24 OAB        29.7671   60.1320   45.7590 O.co2       1 B69      -0.5610
     25 SBB        30.7461   57.3702   44.8714 S.o2        1 B69      -0.1731
     26 OAG        30.9404   56.7142   46.4164 O.co2       1 B69      -0.4830
     27 OAF        31.7992   58.6772   44.6800 O.co2       1 B69      -0.4830
     28 OAE        31.1348   56.1839   43.7317 O.co2       1 B69      -0.4830
     29 H1         17.8642   50.5009   33.8460 H           1 B69       0.0230
     30 H2         17.5372   51.9794   34.7649 H           1 B69       0.0230
     31 H3         17.1500   50.3927   35.4661 H           1 B69       0.0230
     32 H4         19.9908   51.3083   34.7684 H           1 B69       0.0264
     33 H5         19.5393   49.7920   35.5451 H           1 B69       0.0264
     34 H6         20.3027   51.0800   37.3191 H           1 B69       0.0287
     35 H7         18.5628   51.2205   37.4785 H           1 B69       0.0287
     36 H8         18.5189   53.4886   36.9984 H           1 B69       0.0427
     37 H9         19.8299   53.4175   35.8380 H           1 B69       0.0427
     38 H10        22.1865   52.7398   36.8866 H           1 B69       0.0558
     39 H11        23.7921   53.5388   38.4468 H           1 B69       0.0600
     40 H12        19.1119   54.6722   39.0340 H           1 B69       0.0558
     41 H13        20.7160   55.4632   40.6165 H           1 B69       0.0600
     42 H14        22.4971   56.9612   40.9671 H           1 B69       0.0600
     43 H15        24.1467   57.7832   42.4809 H           1 B69       0.0558
     44 H16        24.6483   53.3405   40.6051 H           1 B69       0.0600
     45 H17        26.3471   54.2162   42.0206 H           1 B69       0.0558
     46 H18        27.2575   55.8758   43.4039 H           1 B69       0.0427
     47 H19        26.0583   56.8820   44.2069 H           1 B69       0.0427
     48 H20        26.6576   58.8086   43.0200 H           1 B69       0.0288
     49 H21        27.1697   57.9205   41.5921 H           1 B69       0.0288
     50 H22        29.0856   59.0116   42.7402 H           1 B69       0.0298
     51 H23        29.2297   57.2809   42.5381 H           1 B69       0.0298
     52 H24        28.4350   57.0747   45.0283 H           1 B69       0.0695
@<TRIPOS>BOND
     1     1     2   1
     2     2     3   1
     3     3     4   1
     4     4     5   1
     5     5     6  ar
     6     5     8  ar
     7     6     7  ar
     8     7    10  ar
     9     8     9  ar
    10     9    10  ar
    11    10    11   1
    12    11    12  ar
    13    11    14  ar
    14    12    13  ar
    15    13    16  ar
    16    14    15  ar
    17    15    16  ar
    18    16    17   1
    19    17    18   1
    20    18    19   1
    21    19    20   1
    22    20    21   1
    23    20    25   1
    24    21    22  ar
    25    21    23  ar
    26    21    24  ar
    27    25    26  ar
    28    25    27  ar
    29    25    28  ar
    30     1    29   1
    31     1    30   1
    32     1    31   1
    33     2    32   1
    34     2    33   1
    35     3    34   1
    36     3    35   1
    37     4    36   1
    38     4    37   1
    39     6    38   1
    40     7    39   1
    41     8    40   1
    42     9    41   1
    43    12    42   1
    44    13    43   1
    45    14    44   1
    46    15    45   1
    47    17    46   1
    48    17    47   1
    49    18    48   1
    50    18    49   1
    51    19    50   1
    52    19    51   1
    53    20    52   1
@<TRIPOS>SUBSTRUCTURE
     1  B69      1

