@<TRIPOS>MOLECULE
2zcr_ligand_068
    52    53
SMALL
GAST_HUCK
****
This file was generated by PARSER (from files_GN.cpp)

@<TRIPOS>ATOM
      1 CAA        29.5364   52.8710   43.3828 C.3         1 B69      -0.0651
      2 CAP        28.1546   52.2159   43.1725 C.3         1 B69      -0.0541
      3 CAQ        27.6560   51.4335   44.4192 C.3         1 B69      -0.0435
      4 CAS        26.2236   50.8481   44.2769 C.3         1 B69      -0.0191
      5 CAV        25.9944   50.0608   43.0324 C.ar        1 B69      -0.0429
      6 CAI        25.2718   50.6153   41.9500 C.ar        1 B69      -0.0600
      7 CAM        25.0464   49.8769   40.7769 C.ar        1 B69      -0.0616
      8 CAH        26.4981   48.7462   42.9032 C.ar        1 B69      -0.0600
      9 CAL        26.2674   47.9974   41.7331 C.ar        1 B69      -0.0616
     10 CAX        25.5341   48.5564   40.6621 C.ar        1 B69      -0.0283
     11 CAY        25.2695   47.8122   39.4967 C.ar        1 B69      -0.0283
     12 CAO        26.0546   47.9880   38.3371 C.ar        1 B69      -0.0616
     13 CAK        25.7629   47.2614   37.1654 C.ar        1 B69      -0.0600
     14 CAN        24.1867   46.9033   39.4652 C.ar        1 B69      -0.0616
     15 CAJ        23.8979   46.1860   38.2903 C.ar        1 B69      -0.0600
     16 CAW        24.6735   46.3604   37.1217 C.ar        1 B69      -0.0429
     17 CAT        24.3522   45.5875   35.8861 C.3         1 B69      -0.0190
     18 CAR        22.9265   45.8228   35.3094 C.3         1 B69      -0.0402
     19 CAU        22.4813   47.3035   35.0818 C.3         1 B69      -0.0165
     20 CAZ        23.4456   48.2477   34.2923 C.3         1 B69       0.1121
     21 PBA        23.1651   49.8723   34.5711 P.3         1 B69       0.0795
     22 OAC        22.7402   50.1460   35.9283 O.co2       1 B69      -0.5610
     23 OAD        24.4133   50.5901   34.4490 O.co2       1 B69      -0.5610
     24 OAB        22.2191   50.5334   33.6938 O.co2       1 B69      -0.5610
     25 SBB        23.5623   47.8812   32.5068 S.o2        1 B69      -0.1731
     26 OAG        22.4979   48.8190   31.5883 O.co2       1 B69      -0.4830
     27 OAF        23.2043   46.2691   32.1608 O.co2       1 B69      -0.4830
     28 OAE        25.1427   48.1997   32.0080 O.co2       1 B69      -0.4830
     29 H1         29.8584   53.3507   42.4571 H           1 B69       0.0230
     30 H2         30.2769   52.1207   43.6651 H           1 B69       0.0230
     31 H3         29.4804   53.6297   44.1675 H           1 B69       0.0230
     32 H4         28.2279   51.5278   42.3266 H           1 B69       0.0264
     33 H5         27.4345   52.9955   42.9185 H           1 B69       0.0264
     34 H6         27.6504   52.1063   45.2804 H           1 B69       0.0287
     35 H7         28.3582   50.6242   44.6386 H           1 B69       0.0287
     36 H8         25.5135   51.6801   44.3352 H           1 B69       0.0427
     37 H9         26.0137   50.2098   45.1402 H           1 B69       0.0427
     38 H10        24.9021   51.5677   42.0062 H           1 B69       0.0558
     39 H11        24.5121   50.3012   40.0123 H           1 B69       0.0600
     40 H12        27.0306   48.3191   43.6658 H           1 B69       0.0558
     41 H13        26.6324   47.0433   41.6658 H           1 B69       0.0600
     42 H14        26.8459   48.6382   38.3423 H           1 B69       0.0600
     43 H15        26.3564   47.4039   36.3454 H           1 B69       0.0558
     44 H16        23.6051   46.7604   40.2956 H           1 B69       0.0600
     45 H17        23.1148   45.5293   38.2944 H           1 B69       0.0558
     46 H18        24.4618   44.5247   36.1212 H           1 B69       0.0427
     47 H19        25.0785   45.8019   35.0961 H           1 B69       0.0427
     48 H20        22.2070   45.3636   35.9960 H           1 B69       0.0288
     49 H21        22.8445   45.2686   34.3773 H           1 B69       0.0288
     50 H22        22.3099   47.7108   36.0844 H           1 B69       0.0298
     51 H23        21.5088   47.2951   34.5738 H           1 B69       0.0298
     52 H24        24.4476   48.0809   34.6898 H           1 B69       0.0695
@<TRIPOS>BOND
     1     1     2   1
     2     2     3   1
     3     3     4   1
     4     4     5   1
     5     5     6  ar
     6     5     8  ar
     7     6     7  ar
     8     7    10  ar
     9     8     9  ar
    10     9    10  ar
    11    10    11   1
    12    11    12  ar
    13    11    14  ar
    14    12    13  ar
    15    13    16  ar
    16    14    15  ar
    17    15    16  ar
    18    16    17   1
    19    17    18   1
    20    18    19   1
    21    19    20   1
    22    20    21   1
    23    20    25   1
    24    21    22  ar
    25    21    23  ar
    26    21    24  ar
    27    25    26  ar
    28    25    27  ar
    29    25    28  ar
    30     1    29   1
    31     1    30   1
    32     1    31   1
    33     2    32   1
    34     2    33   1
    35     3    34   1
    36     3    35   1
    37     4    36   1
    38     4    37   1
    39     6    38   1
    40     7    39   1
    41     8    40   1
    42     9    41   1
    43    12    42   1
    44    13    43   1
    45    14    44   1
    46    15    45   1
    47    17    46   1
    48    17    47   1
    49    18    48   1
    50    18    49   1
    51    19    50   1
    52    19    51   1
    53    20    52   1
@<TRIPOS>SUBSTRUCTURE
     1  B69      1

