@<TRIPOS>MOLECULE
2zcr_ligand_042
    52    53
SMALL
GAST_HUCK
****
This file was generated by PARSER (from files_GN.cpp)

@<TRIPOS>ATOM
      1 CAA        11.3899   61.8102   39.7399 C.3         1 B69      -0.0651
      2 CAP        11.2646   60.3187   39.3553 C.3         1 B69      -0.0541
      3 CAQ        11.8146   59.9928   37.9352 C.3         1 B69      -0.0435
      4 CAS        11.8184   58.4585   37.6104 C.3         1 B69      -0.0191
      5 CAV        13.1535   57.8417   37.3524 C.ar        1 B69      -0.0429
      6 CAI        14.1987   57.9646   38.2980 C.ar        1 B69      -0.0600
      7 CAM        15.4324   57.3158   38.0980 C.ar        1 B69      -0.0616
      8 CAH        13.3842   57.0514   36.2025 C.ar        1 B69      -0.0600
      9 CAL        14.6165   56.4032   36.0016 C.ar        1 B69      -0.0616
     10 CAX        15.6645   56.5181   36.9505 C.ar        1 B69      -0.0283
     11 CAY        16.9176   55.8583   36.7553 C.ar        1 B69      -0.0283
     12 CAO        17.5960   55.9335   35.5169 C.ar        1 B69      -0.0616
     13 CAK        18.8401   55.3089   35.3309 C.ar        1 B69      -0.0600
     14 CAN        17.5327   55.1220   37.7995 C.ar        1 B69      -0.0616
     15 CAJ        18.7796   54.4939   37.6137 C.ar        1 B69      -0.0600
     16 CAW        19.4554   54.5728   36.3733 C.ar        1 B69      -0.0429
     17 CAT        20.7860   53.9531   36.0851 C.3         1 B69      -0.0190
     18 CAR        21.4697   53.0207   37.1257 C.3         1 B69      -0.0402
     19 CAU        20.8934   51.5801   37.3134 C.3         1 B69      -0.0165
     20 CAZ        20.8968   50.5265   36.1446 C.3         1 B69       0.1121
     21 PBA        22.2922   50.4433   35.2255 P.3         1 B69       0.0795
     22 OAC        22.2844   51.3652   34.1122 O.co2       1 B69      -0.5610
     23 OAD        23.4795   50.7288   36.0001 O.co2       1 B69      -0.5610
     24 OAB        22.4908   49.1158   34.6903 O.co2       1 B69      -0.5610
     25 SBB        19.3740   50.5369   35.1324 S.o2        1 B69      -0.1731
     26 OAG        18.4006   51.8715   35.4919 O.co2       1 B69      -0.4830
     27 OAF        18.4770   49.1421   35.4698 O.co2       1 B69      -0.4830
     28 OAE        19.7034   50.5605   33.4733 O.co2       1 B69      -0.4830
     29 H1         10.9498   61.9709   40.7277 H           1 B69       0.0230
     30 H2         10.8668   62.4385   39.0154 H           1 B69       0.0230
     31 H3         12.4413   62.1056   39.7772 H           1 B69       0.0230
     32 H4         10.2089   60.0298   39.4059 H           1 B69       0.0264
     33 H5         11.8106   59.7303   40.0992 H           1 B69       0.0264
     34 H6         12.8218   60.4129   37.8362 H           1 B69       0.0287
     35 H7         11.1822   60.5104   37.2034 H           1 B69       0.0287
     36 H8         11.1612   58.3046   36.7500 H           1 B69       0.0427
     37 H9         11.3652   57.8911   38.4275 H           1 B69       0.0427
     38 H10        14.0639   58.5198   39.1463 H           1 B69       0.0558
     39 H11        16.1733   57.4464   38.7939 H           1 B69       0.0600
     40 H12        12.6412   56.9170   35.5129 H           1 B69       0.0558
     41 H13        14.7366   55.8284   35.1636 H           1 B69       0.0600
     42 H14        17.1955   56.4652   34.7399 H           1 B69       0.0600
     43 H15        19.3001   55.4019   34.4226 H           1 B69       0.0558
     44 H16        17.0725   55.0247   38.7059 H           1 B69       0.0600
     45 H17        19.1928   53.9848   38.3976 H           1 B69       0.0558
     46 H18        21.4813   54.7827   35.9173 H           1 B69       0.0427
     47 H19        20.7190   53.4041   35.1391 H           1 B69       0.0427
     48 H20        21.4660   53.5212   38.1015 H           1 B69       0.0288
     49 H21        22.5227   52.9262   36.8364 H           1 B69       0.0288
     50 H22        19.8812   51.6533   37.7168 H           1 B69       0.0298
     51 H23        21.4862   51.1406   38.1206 H           1 B69       0.0298
     52 H24        20.8517   49.5552   36.6484 H           1 B69       0.0695
@<TRIPOS>BOND
     1     1     2   1
     2     2     3   1
     3     3     4   1
     4     4     5   1
     5     5     6  ar
     6     5     8  ar
     7     6     7  ar
     8     7    10  ar
     9     8     9  ar
    10     9    10  ar
    11    10    11   1
    12    11    12  ar
    13    11    14  ar
    14    12    13  ar
    15    13    16  ar
    16    14    15  ar
    17    15    16  ar
    18    16    17   1
    19    17    18   1
    20    18    19   1
    21    19    20   1
    22    20    21   1
    23    20    25   1
    24    21    22  ar
    25    21    23  ar
    26    21    24  ar
    27    25    26  ar
    28    25    27  ar
    29    25    28  ar
    30     1    29   1
    31     1    30   1
    32     1    31   1
    33     2    32   1
    34     2    33   1
    35     3    34   1
    36     3    35   1
    37     4    36   1
    38     4    37   1
    39     6    38   1
    40     7    39   1
    41     8    40   1
    42     9    41   1
    43    12    42   1
    44    13    43   1
    45    14    44   1
    46    15    45   1
    47    17    46   1
    48    17    47   1
    49    18    48   1
    50    18    49   1
    51    19    50   1
    52    19    51   1
    53    20    52   1
@<TRIPOS>SUBSTRUCTURE
     1  B69      1

