@<TRIPOS>MOLECULE
2zcr_ligand_013
    52    53
SMALL
GAST_HUCK
****
This file was generated by PARSER (from files_GN.cpp)

@<TRIPOS>ATOM
      1 CAA         7.4201   59.1067   38.4687 C.3         1 B69      -0.0651
      2 CAP         8.8059   59.5125   37.9288 C.3         1 B69      -0.0541
      3 CAQ         9.0250   61.0537   37.9197 C.3         1 B69      -0.0435
      4 CAS        10.4211   61.5181   37.4132 C.3         1 B69      -0.0191
      5 CAV        11.5248   60.5557   37.6774 C.ar        1 B69      -0.0429
      6 CAI        12.2279   59.9633   36.6062 C.ar        1 B69      -0.0600
      7 CAM        13.1599   58.9406   36.8345 C.ar        1 B69      -0.0616
      8 CAH        11.8449   60.1503   38.9925 C.ar        1 B69      -0.0600
      9 CAL        12.7625   59.1097   39.2248 C.ar        1 B69      -0.0616
     10 CAX        13.4077   58.4594   38.1428 C.ar        1 B69      -0.0283
     11 CAY        14.2466   57.3365   38.3462 C.ar        1 B69      -0.0283
     12 CAO        14.1436   56.1901   37.5101 C.ar        1 B69      -0.0616
     13 CAK        15.0036   55.0944   37.6632 C.ar        1 B69      -0.0600
     14 CAN        15.2159   57.2937   39.3864 C.ar        1 B69      -0.0616
     15 CAJ        16.0602   56.1895   39.5450 C.ar        1 B69      -0.0600
     16 CAW        16.0117   55.0845   38.6563 C.ar        1 B69      -0.0429
     17 CAT        16.9862   53.9597   38.7478 C.3         1 B69      -0.0190
     18 CAR        17.9748   53.8605   37.5314 C.3         1 B69      -0.0402
     19 CAU        19.4253   54.3667   37.8069 C.3         1 B69      -0.0165
     20 CAZ        20.4784   54.2803   36.6463 C.3         1 B69       0.1121
     21 PBA        20.1101   55.1770   35.2808 P.3         1 B69       0.0795
     22 OAC        18.7096   55.1077   34.9347 O.co2       1 B69      -0.5610
     23 OAD        20.4231   56.5701   35.4893 O.co2       1 B69      -0.5610
     24 OAB        20.8066   54.7595   34.0809 O.co2       1 B69      -0.5610
     25 SBB        21.0495   52.5782   36.3131 S.o2        1 B69      -0.1731
     26 OAG        19.9171   51.4183   36.7880 O.co2       1 B69      -0.4830
     27 OAF        22.4720   52.3366   37.2021 O.co2       1 B69      -0.4830
     28 OAE        21.3990   52.3090   34.6771 O.co2       1 B69      -0.4830
     29 H1          7.3598   58.0167   38.5213 H           1 B69       0.0230
     30 H2          6.6270   59.4703   37.8116 H           1 B69       0.0230
     31 H3          7.2666   59.5112   39.4739 H           1 B69       0.0230
     32 H4          8.9203   59.1215   36.9139 H           1 B69       0.0264
     33 H5          9.5595   59.0407   38.5622 H           1 B69       0.0264
     34 H6          8.8617   61.4411   38.9306 H           1 B69       0.0287
     35 H7          8.2681   61.5091   37.2732 H           1 B69       0.0287
     36 H8         10.6705   62.4723   37.8895 H           1 B69       0.0427
     37 H9         10.3366   61.7154   36.3398 H           1 B69       0.0427
     38 H10        12.0425   60.2420   35.6399 H           1 B69       0.0558
     39 H11        13.6394   58.5284   36.0308 H           1 B69       0.0600
     40 H12        11.3643   60.5684   39.7916 H           1 B69       0.0558
     41 H13        12.9101   58.7911   40.1862 H           1 B69       0.0600
     42 H14        13.4357   56.1524   36.7705 H           1 B69       0.0600
     43 H15        14.9098   54.3023   37.0211 H           1 B69       0.0558
     44 H16        15.3276   58.0935   40.0177 H           1 B69       0.0600
     45 H17        16.7351   56.1871   40.3122 H           1 B69       0.0558
     46 H18        16.3981   53.0372   38.8050 H           1 B69       0.0427
     47 H19        17.5621   54.0285   39.6793 H           1 B69       0.0427
     48 H20        17.5771   54.4337   36.6848 H           1 B69       0.0288
     49 H21        18.0121   52.8163   37.2088 H           1 B69       0.0288
     50 H22        19.8134   53.8182   38.6675 H           1 B69       0.0298
     51 H23        19.3517   55.4129   38.1150 H           1 B69       0.0298
     52 H24        21.3722   54.7562   37.0545 H           1 B69       0.0695
@<TRIPOS>BOND
     1     1     2   1
     2     2     3   1
     3     3     4   1
     4     4     5   1
     5     5     6  ar
     6     5     8  ar
     7     6     7  ar
     8     7    10  ar
     9     8     9  ar
    10     9    10  ar
    11    10    11   1
    12    11    12  ar
    13    11    14  ar
    14    12    13  ar
    15    13    16  ar
    16    14    15  ar
    17    15    16  ar
    18    16    17   1
    19    17    18   1
    20    18    19   1
    21    19    20   1
    22    20    21   1
    23    20    25   1
    24    21    22  ar
    25    21    23  ar
    26    21    24  ar
    27    25    26  ar
    28    25    27  ar
    29    25    28  ar
    30     1    29   1
    31     1    30   1
    32     1    31   1
    33     2    32   1
    34     2    33   1
    35     3    34   1
    36     3    35   1
    37     4    36   1
    38     4    37   1
    39     6    38   1
    40     7    39   1
    41     8    40   1
    42     9    41   1
    43    12    42   1
    44    13    43   1
    45    14    44   1
    46    15    45   1
    47    17    46   1
    48    17    47   1
    49    18    48   1
    50    18    49   1
    51    19    50   1
    52    19    51   1
    53    20    52   1
@<TRIPOS>SUBSTRUCTURE
     1  B69      1

