@<TRIPOS>MOLECULE
2zcr_ligand_000
    52    53
SMALL
GAST_HUCK
****
This file was generated by PARSER (from files_GN.cpp)

@<TRIPOS>ATOM
      1 CAA        15.9827   48.5710   37.0816 C.3         1 B69      -0.0651
      2 CAP        16.4331   48.4724   35.6041 C.3         1 B69      -0.0541
      3 CAQ        17.7467   49.2371   35.2771 C.3         1 B69      -0.0435
      4 CAS        17.6334   50.7941   35.2894 C.3         1 B69      -0.0191
      5 CAV        18.6430   51.4766   36.1456 C.ar        1 B69      -0.0429
      6 CAI        18.3443   51.7939   37.4870 C.ar        1 B69      -0.0600
      7 CAM        19.2559   52.5203   38.2688 C.ar        1 B69      -0.0616
      8 CAH        19.8996   51.8583   35.6260 C.ar        1 B69      -0.0600
      9 CAL        20.8105   52.5917   36.4088 C.ar        1 B69      -0.0616
     10 CAX        20.4942   52.9597   37.7389 C.ar        1 B69      -0.0283
     11 CAY        21.3843   53.7501   38.5352 C.ar        1 B69      -0.0283
     12 CAO        20.8791   54.8068   39.3303 C.ar        1 B69      -0.0616
     13 CAK        21.7046   55.4931   40.2290 C.ar        1 B69      -0.0600
     14 CAN        22.7656   53.4627   38.6252 C.ar        1 B69      -0.0616
     15 CAJ        23.6070   54.1953   39.4887 C.ar        1 B69      -0.0600
     16 CAW        23.0912   55.2197   40.3167 C.ar        1 B69      -0.0429
     17 CAT        23.9399   55.8714   41.3616 C.3         1 B69      -0.0190
     18 CAR        23.8405   57.4274   41.5250 C.3         1 B69      -0.0402
     19 CAU        25.0547   58.2767   41.0475 C.3         1 B69      -0.0165
     20 CAZ        26.4431   58.0566   41.7378 C.3         1 B69       0.1121
     21 PBA        26.5216   58.3460   43.3882 P.3         1 B69       0.0795
     22 OAC        26.2451   59.7150   43.7450 O.co2       1 B69      -0.5610
     23 OAD        25.6355   57.4905   44.1383 O.co2       1 B69      -0.5610
     24 OAB        27.8403   58.0320   43.8842 O.co2       1 B69      -0.5610
     25 SBB        27.7306   59.0415   40.9048 S.o2        1 B69      -0.1731
     26 OAG        27.4138   59.1993   39.2535 O.co2       1 B69      -0.4830
     27 OAF        29.2179   58.2569   41.0871 O.co2       1 B69      -0.4830
     28 OAE        27.8366   60.5940   41.5590 O.co2       1 B69      -0.4830
     29 H1         15.1028   47.9449   37.2421 H           1 B69       0.0230
     30 H2         15.7236   49.5986   37.3420 H           1 B69       0.0230
     31 H3         16.7753   48.2247   37.7463 H           1 B69       0.0230
     32 H4         15.6273   48.8411   34.9628 H           1 B69       0.0264
     33 H5         16.5794   47.4143   35.3714 H           1 B69       0.0264
     34 H6         18.0621   48.9260   34.2751 H           1 B69       0.0287
     35 H7         18.5251   48.8978   35.9628 H           1 B69       0.0287
     36 H8         16.6355   51.1023   35.6099 H           1 B69       0.0427
     37 H9         17.7315   51.1638   34.2636 H           1 B69       0.0427
     38 H10        17.4495   51.5214   37.8991 H           1 B69       0.0558
     39 H11        18.9955   52.7358   39.2354 H           1 B69       0.0600
     40 H12        20.1493   51.6289   34.6614 H           1 B69       0.0558
     41 H13        21.6947   52.8892   35.9855 H           1 B69       0.0600
     42 H14        19.8918   55.0696   39.2847 H           1 B69       0.0600
     43 H15        21.2675   56.1908   40.8320 H           1 B69       0.0558
     44 H16        23.1656   52.6817   38.0993 H           1 B69       0.0600
     45 H17        24.5915   53.9270   39.5577 H           1 B69       0.0558
     46 H18        24.9780   55.5909   41.2027 H           1 B69       0.0427
     47 H19        23.6476   55.4173   42.3087 H           1 B69       0.0427
     48 H20        23.6447   57.6547   42.5716 H           1 B69       0.0288
     49 H21        22.9730   57.8093   40.9865 H           1 B69       0.0288
     50 H22        24.7936   59.3362   41.1496 H           1 B69       0.0298
     51 H23        25.1581   58.0793   39.9794 H           1 B69       0.0298
     52 H24        26.7395   57.0234   41.5809 H           1 B69       0.0695
@<TRIPOS>BOND
     1     1     2   1
     2     2     3   1
     3     3     4   1
     4     4     5   1
     5     5     6  ar
     6     5     8  ar
     7     6     7  ar
     8     7    10  ar
     9     8     9  ar
    10     9    10  ar
    11    10    11   1
    12    11    12  ar
    13    11    14  ar
    14    12    13  ar
    15    13    16  ar
    16    14    15  ar
    17    15    16  ar
    18    16    17   1
    19    17    18   1
    20    18    19   1
    21    19    20   1
    22    20    21   1
    23    20    25   1
    24    21    22  ar
    25    21    23  ar
    26    21    24  ar
    27    25    26  ar
    28    25    27  ar
    29    25    28  ar
    30     1    29   1
    31     1    30   1
    32     1    31   1
    33     2    32   1
    34     2    33   1
    35     3    34   1
    36     3    35   1
    37     4    36   1
    38     4    37   1
    39     6    38   1
    40     7    39   1
    41     8    40   1
    42     9    41   1
    43    12    42   1
    44    13    43   1
    45    14    44   1
    46    15    45   1
    47    17    46   1
    48    17    47   1
    49    18    48   1
    50    18    49   1
    51    19    50   1
    52    19    51   1
    53    20    52   1
@<TRIPOS>SUBSTRUCTURE
     1  B69      1

