@<TRIPOS>MOLECULE
2zcr_ligand_022
    52    53
SMALL
GAST_HUCK
****
This file was generated by PARSER (from files_GN.cpp)

@<TRIPOS>ATOM
      1 CAA        14.4039   56.2703   39.8304 C.3         1 B69      -0.0651
      2 CAP        15.9355   56.4378   39.9658 C.3         1 B69      -0.0541
      3 CAQ        16.7678   55.2375   39.4338 C.3         1 B69      -0.0435
      4 CAS        17.2592   55.3613   37.9583 C.3         1 B69      -0.0191
      5 CAV        18.5295   54.6287   37.7025 C.ar        1 B69      -0.0429
      6 CAI        18.6874   53.2846   38.1165 C.ar        1 B69      -0.0600
      7 CAM        19.9067   52.6019   37.9301 C.ar        1 B69      -0.0616
      8 CAH        19.6214   55.2567   37.0523 C.ar        1 B69      -0.0600
      9 CAL        20.8364   54.5723   36.8464 C.ar        1 B69      -0.0616
     10 CAX        20.9955   53.2426   37.2972 C.ar        1 B69      -0.0283
     11 CAY        22.2137   52.5537   37.0883 C.ar        1 B69      -0.0283
     12 CAO        23.2113   52.5339   38.0864 C.ar        1 B69      -0.0616
     13 CAK        24.4233   51.8540   37.8634 C.ar        1 B69      -0.0600
     14 CAN        22.4418   51.8723   35.8734 C.ar        1 B69      -0.0616
     15 CAJ        23.6527   51.1888   35.6550 C.ar        1 B69      -0.0600
     16 CAW        24.6619   51.1706   36.6477 C.ar        1 B69      -0.0429
     17 CAT        25.9644   50.4815   36.4203 C.3         1 B69      -0.0190
     18 CAR        26.0522   49.0845   37.1168 C.3         1 B69      -0.0402
     19 CAU        27.5113   48.5478   37.2405 C.3         1 B69      -0.0165
     20 CAZ        27.8172   47.6214   38.4682 C.3         1 B69       0.1121
     21 PBA        27.3018   48.2307   39.9460 P.3         1 B69       0.0795
     22 OAC        28.1038   47.9387   41.1161 O.co2       1 B69      -0.5610
     23 OAD        27.1778   49.6713   39.8895 O.co2       1 B69      -0.5610
     24 OAB        25.9748   47.7548   40.2605 O.co2       1 B69      -0.5610
     25 SBB        29.6007   47.2654   38.5262 S.o2        1 B69      -0.1731
     26 OAG        29.9130   46.0169   39.6241 O.co2       1 B69      -0.4830
     27 OAF        30.4449   48.6508   39.0045 O.co2       1 B69      -0.4830
     28 OAE        30.1614   46.7885   37.0045 O.co2       1 B69      -0.4830
     29 H1         13.9029   57.1877   40.1395 H           1 B69       0.0230
     30 H2         14.0570   55.4541   40.4656 H           1 B69       0.0230
     31 H3         14.1257   56.0589   38.7946 H           1 B69       0.0230
     32 H4         16.1626   56.5727   41.0283 H           1 B69       0.0264
     33 H5         16.2419   57.3551   39.4560 H           1 B69       0.0264
     34 H6         16.1781   54.3228   39.5407 H           1 B69       0.0287
     35 H7         17.6389   55.1300   40.0855 H           1 B69       0.0287
     36 H8         17.3798   56.4213   37.7191 H           1 B69       0.0427
     37 H9         16.4862   54.9705   37.2894 H           1 B69       0.0427
     38 H10        17.9122   52.7916   38.5701 H           1 B69       0.0558
     39 H11        19.9913   51.6374   38.2566 H           1 B69       0.0600
     40 H12        19.5441   56.2220   36.7244 H           1 B69       0.0558
     41 H13        21.5981   55.0485   36.3615 H           1 B69       0.0600
     42 H14        23.0675   53.0172   38.9778 H           1 B69       0.0600
     43 H15        25.1383   51.8648   38.5956 H           1 B69       0.0558
     44 H16        21.7292   51.8643   35.1386 H           1 B69       0.0600
     45 H17        23.7947   50.7010   34.7688 H           1 B69       0.0558
     46 H18        26.7499   51.1446   36.7913 H           1 B69       0.0427
     47 H19        26.1517   50.3372   35.3493 H           1 B69       0.0427
     48 H20        25.4585   48.3661   36.5394 H           1 B69       0.0288
     49 H21        25.6027   49.1532   38.1059 H           1 B69       0.0288
     50 H22        28.2092   49.3932   37.2764 H           1 B69       0.0298
     51 H23        27.7340   48.0000   36.3171 H           1 B69       0.0298
     52 H24        27.3150   46.6620   38.3073 H           1 B69       0.0695
@<TRIPOS>BOND
     1     1     2   1
     2     2     3   1
     3     3     4   1
     4     4     5   1
     5     5     6  ar
     6     5     8  ar
     7     6     7  ar
     8     7    10  ar
     9     8     9  ar
    10     9    10  ar
    11    10    11   1
    12    11    12  ar
    13    11    14  ar
    14    12    13  ar
    15    13    16  ar
    16    14    15  ar
    17    15    16  ar
    18    16    17   1
    19    17    18   1
    20    18    19   1
    21    19    20   1
    22    20    21   1
    23    20    25   1
    24    21    22  ar
    25    21    23  ar
    26    21    24  ar
    27    25    26  ar
    28    25    27  ar
    29    25    28  ar
    30     1    29   1
    31     1    30   1
    32     1    31   1
    33     2    32   1
    34     2    33   1
    35     3    34   1
    36     3    35   1
    37     4    36   1
    38     4    37   1
    39     6    38   1
    40     7    39   1
    41     8    40   1
    42     9    41   1
    43    12    42   1
    44    13    43   1
    45    14    44   1
    46    15    45   1
    47    17    46   1
    48    17    47   1
    49    18    48   1
    50    18    49   1
    51    19    50   1
    52    19    51   1
    53    20    52   1
@<TRIPOS>SUBSTRUCTURE
     1  B69      1

