@<TRIPOS>MOLECULE
2zcr_ligand_039
    52    53
SMALL
GAST_HUCK
****
This file was generated by PARSER (from files_GN.cpp)

@<TRIPOS>ATOM
      1 CAA        19.9116   56.0586   35.0397 C.3         1 B69      -0.0651
      2 CAP        20.2954   54.9774   36.0740 C.3         1 B69      -0.0541
      3 CAQ        19.7414   55.2403   37.5027 C.3         1 B69      -0.0435
      4 CAS        19.7358   53.9939   38.4414 C.3         1 B69      -0.0191
      5 CAV        20.7286   52.9403   38.0774 C.ar        1 B69      -0.0429
      6 CAI        22.1178   53.2012   38.1570 C.ar        1 B69      -0.0600
      7 CAM        23.0547   52.2324   37.7501 C.ar        1 B69      -0.0616
      8 CAH        20.3043   51.6579   37.6541 C.ar        1 B69      -0.0600
      9 CAL        21.2343   50.6873   37.2474 C.ar        1 B69      -0.0616
     10 CAX        22.6203   50.9767   37.2729 C.ar        1 B69      -0.0283
     11 CAY        23.5547   50.0178   36.8208 C.ar        1 B69      -0.0283
     12 CAO        23.9806   48.9626   37.6615 C.ar        1 B69      -0.0616
     13 CAK        24.9198   48.0225   37.2049 C.ar        1 B69      -0.0600
     14 CAN        24.0732   50.0965   35.5066 C.ar        1 B69      -0.0616
     15 CAJ        25.0382   49.1708   35.0640 C.ar        1 B69      -0.0600
     16 CAW        25.4936   48.1351   35.9149 C.ar        1 B69      -0.0429
     17 CAT        26.5936   47.2345   35.4879 C.3         1 B69      -0.0190
     18 CAR        28.0088   47.8427   35.7426 C.3         1 B69      -0.0402
     19 CAU        28.2778   48.4484   37.1507 C.3         1 B69      -0.0165
     20 CAZ        28.2011   47.4594   38.3715 C.3         1 B69       0.1121
     21 PBA        27.6410   48.1431   39.8050 P.3         1 B69       0.0795
     22 OAC        26.3906   47.5352   40.1877 O.co2       1 B69      -0.5610
     23 OAD        28.5043   48.0007   40.9520 O.co2       1 B69      -0.5610
     24 OAB        27.3375   49.5491   39.7048 O.co2       1 B69      -0.5610
     25 SBB        29.7691   46.5879   38.6503 S.o2        1 B69      -0.1731
     26 OAG        30.7756   47.5082   39.6593 O.co2       1 B69      -0.4830
     27 OAF        30.5538   46.3150   37.1771 O.co2       1 B69      -0.4830
     28 OAE        29.4643   45.0917   39.3929 O.co2       1 B69      -0.4830
     29 H1         20.5045   55.9226   34.1376 H           1 B69       0.0230
     30 H2         20.1074   57.0542   35.4364 H           1 B69       0.0230
     31 H3         18.8551   55.9813   34.7795 H           1 B69       0.0230
     32 H4         21.4002   54.9490   36.1296 H           1 B69       0.0264
     33 H5         19.9497   53.9979   35.7111 H           1 B69       0.0264
     34 H6         18.7237   55.6205   37.4220 H           1 B69       0.0287
     35 H7         20.3431   56.0226   37.9665 H           1 B69       0.0287
     36 H8         18.7191   53.5832   38.4286 H           1 B69       0.0427
     37 H9         19.9322   54.3289   39.4593 H           1 B69       0.0427
     38 H10        22.4538   54.1063   38.4804 H           1 B69       0.0558
     39 H11        24.0539   52.4560   37.7795 H           1 B69       0.0600
     40 H12        19.3102   51.4382   37.5858 H           1 B69       0.0558
     41 H13        20.9046   49.7830   36.9060 H           1 B69       0.0600
     42 H14        23.6317   48.8877   38.6262 H           1 B69       0.0600
     43 H15        25.2149   47.2722   37.8287 H           1 B69       0.0558
     44 H16        23.7487   50.8379   34.8752 H           1 B69       0.0600
     45 H17        25.4198   49.2791   34.1218 H           1 B69       0.0558
     46 H18        26.4771   47.0229   34.4227 H           1 B69       0.0427
     47 H19        26.5258   46.2697   35.9951 H           1 B69       0.0427
     48 H20        28.1663   48.6447   35.0001 H           1 B69       0.0288
     49 H21        28.7596   47.0738   35.5423 H           1 B69       0.0288
     50 H22        27.5650   49.2658   37.2669 H           1 B69       0.0298
     51 H23        29.2659   48.9149   37.1306 H           1 B69       0.0298
     52 H24        27.5008   46.6634   38.1356 H           1 B69       0.0695
@<TRIPOS>BOND
     1     1     2   1
     2     2     3   1
     3     3     4   1
     4     4     5   1
     5     5     6  ar
     6     5     8  ar
     7     6     7  ar
     8     7    10  ar
     9     8     9  ar
    10     9    10  ar
    11    10    11   1
    12    11    12  ar
    13    11    14  ar
    14    12    13  ar
    15    13    16  ar
    16    14    15  ar
    17    15    16  ar
    18    16    17   1
    19    17    18   1
    20    18    19   1
    21    19    20   1
    22    20    21   1
    23    20    25   1
    24    21    22  ar
    25    21    23  ar
    26    21    24  ar
    27    25    26  ar
    28    25    27  ar
    29    25    28  ar
    30     1    29   1
    31     1    30   1
    32     1    31   1
    33     2    32   1
    34     2    33   1
    35     3    34   1
    36     3    35   1
    37     4    36   1
    38     4    37   1
    39     6    38   1
    40     7    39   1
    41     8    40   1
    42     9    41   1
    43    12    42   1
    44    13    43   1
    45    14    44   1
    46    15    45   1
    47    17    46   1
    48    17    47   1
    49    18    48   1
    50    18    49   1
    51    19    50   1
    52    19    51   1
    53    20    52   1
@<TRIPOS>SUBSTRUCTURE
     1  B69      1

