@<TRIPOS>MOLECULE
2zjw_ligand_032
    28    31
SMALL
GAST_HUCK
****
This file was generated by PARSER (from files_GN.cpp)

@<TRIPOS>ATOM
      1 C1         37.0613   -4.7572    4.2246 C.ar        1 REF       0.0450
      2 C2         37.0403   -4.0521    5.4584 C.ar        1 REF       0.0162
      3 C3         38.1695   -3.3128    5.9174 C.ar        1 REF       0.0162
      4 C4         39.3395   -3.3243    5.1197 C.ar        1 REF       0.1580
      5 O5         39.3260   -4.0036    3.9260 O.3         1 REF      -0.2195
      6 C6         38.2531   -4.7099    3.4581 C.2         1 REF       0.2659
      7 C7         38.1353   -2.5893    7.1409 C.ar        1 REF       0.0450
      8 C8         39.2726   -1.8483    7.5296 C.ar        1 REF      -0.0299
      9 C9         40.4464   -1.8850    6.7481 C.ar        1 REF       0.1153
     10 C10        40.4867   -2.6330    5.5547 C.ar        1 REF       0.1561
     11 C11        35.8843   -4.0688    6.2703 C.ar        1 REF       0.1580
     12 O12        35.8754   -3.3653    7.4523 O.3         1 REF      -0.2195
     13 C13        36.9395   -2.6421    7.9089 C.2         1 REF       0.2659
     14 C14        35.9122   -5.4743    3.8213 C.ar        1 REF      -0.0299
     15 C15        34.7547   -5.4747    4.6275 C.ar        1 REF       0.1153
     16 C16        34.7533   -4.7897    5.8583 C.ar        1 REF       0.1561
     17 O19        41.6409   -2.6719    4.8474 O.3         1 REF      -0.3376
     18 O20        41.5694   -1.2538    7.1618 O.3         1 REF      -0.3385
     19 O21        36.8194   -2.0172    9.1021 O.2         1 REF      -0.3660
     20 O22        33.6620   -4.8027    6.6484 O.3         1 REF      -0.3376
     21 O23        33.6362   -6.1061    4.1946 O.3         1 REF      -0.3385
     22 O24        38.3476   -5.3354    2.2611 O.2         1 REF      -0.3660
     23 H1         39.2593   -1.2818    8.3843 H           1 REF       0.0486
     24 H2         35.9046   -5.9853    2.9346 H           1 REF       0.0486
     25 H3         41.9035   -3.6166    4.8441 H           1 REF       0.2424
     26 H4         41.3432   -0.3024    7.1990 H           1 REF       0.2440
     27 H5         33.1891   -3.9775    6.4174 H           1 REF       0.2424
     28 H6         33.2743   -5.5177    3.4883 H           1 REF       0.2440
@<TRIPOS>BOND
     1     1     2  ar
     2     1     6   1
     3     1    14  ar
     4     2     3   1
     5     2    11  ar
     6     3     4  ar
     7     3     7  ar
     8     4     5   1
     9     4    10  ar
    10     5     6   1
    11     6    22   2
    12     7     8  ar
    13     7    13   1
    14     8     9  ar
    15     9    10  ar
    16     9    18   1
    17    10    17   1
    18    11    12   1
    19    11    16  ar
    20    12    13   1
    21    13    19   2
    22    14    15  ar
    23    15    16  ar
    24    15    21   1
    25    16    20   1
    26     8    23   1
    27    14    24   1
    28    17    25   1
    29    18    26   1
    30    20    27   1
    31    21    28   1
@<TRIPOS>SUBSTRUCTURE
     1  REF      1

