@<TRIPOS>MOLECULE
2zjw_ligand_000
    28    31
SMALL
GAST_HUCK
****
This file was generated by PARSER (from files_GN.cpp)

@<TRIPOS>ATOM
      1 C1         35.3296    2.6699    3.9151 C.ar        1 REF       0.0450
      2 C2         36.0775    2.1054    4.9787 C.ar        1 REF       0.0162
      3 C3         36.8619    0.9318    4.7846 C.ar        1 REF       0.0162
      4 C4         36.8791    0.3457    3.4987 C.ar        1 REF       0.1580
      5 O5         36.1387    0.9097    2.4930 O.3         1 REF      -0.2195
      6 C6         35.3778    2.0285    2.6499 C.2         1 REF       0.2659
      7 C7         37.6069    0.3547    5.8429 C.ar        1 REF       0.0450
      8 C8         38.3589   -0.8188    5.5946 C.ar        1 REF      -0.0299
      9 C9         38.3817   -1.3923    4.3086 C.ar        1 REF       0.1153
     10 C10        37.6482   -0.8077    3.2609 C.ar        1 REF       0.1561
     11 C11        36.0473    2.6897    6.2653 C.ar        1 REF       0.1580
     12 O12        36.7886    2.1210    7.2718 O.3         1 REF      -0.2195
     13 C13        37.5556    0.9989    7.1119 C.2         1 REF       0.2659
     14 C14        34.5695    3.8355    4.1542 C.ar        1 REF      -0.0299
     15 C15        34.5273    4.4117    5.4377 C.ar        1 REF       0.1153
     16 C16        35.2553    3.8339    6.4967 C.ar        1 REF       0.1561
     17 O19        37.6545   -1.3684    2.0276 O.3         1 REF      -0.3376
     18 O20        39.1059   -2.5113    4.0687 O.3         1 REF      -0.3385
     19 O21        38.2476    0.5425    8.1822 O.2         1 REF      -0.3660
     20 O22        35.1744    4.3675    7.7369 O.3         1 REF      -0.3376
     21 O23        33.7697    5.5188    5.6125 O.3         1 REF      -0.3385
     22 O24        34.6862    2.4813    1.5802 O.2         1 REF      -0.3660
     23 H1         38.9011   -1.2554    6.3436 H           1 REF       0.0486
     24 H2         34.0263    4.2617    3.3931 H           1 REF       0.0486
     25 H3         36.8169   -1.8681    1.9761 H           1 REF       0.2424
     26 H4         38.6755   -3.2258    4.6041 H           1 REF       0.2440
     27 H5         34.9228    3.6071    8.3275 H           1 REF       0.2424
     28 H6         33.1084    5.2742    6.3114 H           1 REF       0.2440
@<TRIPOS>BOND
     1     1     2  ar
     2     1     6   1
     3     1    14  ar
     4     2     3   1
     5     2    11  ar
     6     3     4  ar
     7     3     7  ar
     8     4     5   1
     9     4    10  ar
    10     5     6   1
    11     6    22   2
    12     7     8  ar
    13     7    13   1
    14     8     9  ar
    15     9    10  ar
    16     9    18   1
    17    10    17   1
    18    11    12   1
    19    11    16  ar
    20    12    13   1
    21    13    19   2
    22    14    15  ar
    23    15    16  ar
    24    15    21   1
    25    16    20   1
    26     8    23   1
    27    14    24   1
    28    17    25   1
    29    18    26   1
    30    20    27   1
    31    21    28   1
@<TRIPOS>SUBSTRUCTURE
     1  REF      1

