@<TRIPOS>MOLECULE
2zjw_ligand_036
    28    31
SMALL
GAST_HUCK
****
This file was generated by PARSER (from files_GN.cpp)

@<TRIPOS>ATOM
      1 C1         38.5448   -6.2721    4.7444 C.ar        1 REF       0.0450
      2 C2         37.8523   -5.7445    3.6232 C.ar        1 REF       0.0162
      3 C3         36.9126   -6.5348    2.8940 C.ar        1 REF       0.0162
      4 C4         36.6293   -7.8393    3.3595 C.ar        1 REF       0.1580
      5 O5         37.2986   -8.3217    4.4558 O.3         1 REF      -0.2195
      6 C6         38.2376   -7.6025    5.1477 C.2         1 REF       0.2659
      7 C7         36.2687   -6.0208    1.7372 C.ar        1 REF       0.0450
      8 C8         35.3176   -6.8255    1.0767 C.ar        1 REF      -0.0299
      9 C9         35.0015   -8.1075    1.5645 C.ar        1 REF       0.1153
     10 C10        35.6736   -8.6233    2.6902 C.ar        1 REF       0.1561
     11 C11        38.0805   -4.4158    3.1985 C.ar        1 REF       0.1580
     12 O12        37.4537   -3.9527    2.0677 O.3         1 REF      -0.2195
     13 C13        36.5964   -4.7021    1.3185 C.2         1 REF       0.2659
     14 C14        39.5226   -5.4790    5.3723 C.ar        1 REF      -0.0299
     15 C15        39.7438   -4.1506    4.9550 C.ar        1 REF       0.1153
     16 C16        38.9904   -3.6067    3.8940 C.ar        1 REF       0.1561
     17 O19        35.4015   -9.8678    3.1578 O.3         1 REF      -0.3376
     18 O20        34.0162   -8.8175    0.9621 O.3         1 REF      -0.3385
     19 O21        36.0895   -4.1520    0.1909 O.2         1 REF      -0.3660
     20 O22        39.1751   -2.3178    3.5155 O.3         1 REF      -0.3376
     21 O23        40.7050   -3.4134    5.5654 O.3         1 REF      -0.3385
     22 O24        38.8185   -8.1894    6.2205 O.2         1 REF      -0.3660
     23 H1         34.8293   -6.4730    0.2550 H           1 REF       0.0486
     24 H2         40.0814   -5.8611    6.1320 H           1 REF       0.0486
     25 H3         35.4018  -10.4477    2.3573 H           1 REF       0.2424
     26 H4         34.3099   -8.8912    0.0158 H           1 REF       0.2440
     27 H5         38.8051   -1.7813    4.2536 H           1 REF       0.2424
     28 H6         41.5562   -3.8520    5.2854 H           1 REF       0.2440
@<TRIPOS>BOND
     1     1     2  ar
     2     1     6   1
     3     1    14  ar
     4     2     3   1
     5     2    11  ar
     6     3     4  ar
     7     3     7  ar
     8     4     5   1
     9     4    10  ar
    10     5     6   1
    11     6    22   2
    12     7     8  ar
    13     7    13   1
    14     8     9  ar
    15     9    10  ar
    16     9    18   1
    17    10    17   1
    18    11    12   1
    19    11    16  ar
    20    12    13   1
    21    13    19   2
    22    14    15  ar
    23    15    16  ar
    24    15    21   1
    25    16    20   1
    26     8    23   1
    27    14    24   1
    28    17    25   1
    29    18    26   1
    30    20    27   1
    31    21    28   1
@<TRIPOS>SUBSTRUCTURE
     1  REF      1

