@<TRIPOS>MOLECULE
2zjw_ligand_016
    28    31
SMALL
GAST_HUCK
****
This file was generated by PARSER (from files_GN.cpp)

@<TRIPOS>ATOM
      1 C1         35.3956   -4.4543   13.2930 C.ar        1 REF       0.0450
      2 C2         36.1333   -4.3659   12.0870 C.ar        1 REF       0.0162
      3 C3         36.6245   -5.5350   11.4309 C.ar        1 REF       0.0162
      4 C4         36.3708   -6.7991   12.0222 C.ar        1 REF       0.1580
      5 O5         35.6639   -6.8526   13.1982 O.3         1 REF      -0.2195
      6 C6         35.1780   -5.7474   13.8363 C.2         1 REF       0.2659
      7 C7         37.3428   -5.4435   10.2163 C.ar        1 REF       0.0450
      8 C8         37.7944   -6.6273    9.5988 C.ar        1 REF      -0.0299
      9 C9         37.5345   -7.8860   10.1818 C.ar        1 REF       0.1153
     10 C10        36.8427   -7.9747   11.4041 C.ar        1 REF       0.1561
     11 C11        36.3757   -3.0995   11.4952 C.ar        1 REF       0.1580
     12 O12        37.0874   -3.0463   10.3206 O.3         1 REF      -0.2195
     13 C13        37.5713   -4.1509    9.6769 C.2         1 REF       0.2659
     14 C14        34.9100   -3.2701   13.8996 C.ar        1 REF      -0.0299
     15 C15        35.1692   -2.0128   13.3160 C.ar        1 REF       0.1153
     16 C16        35.8819   -1.9272   12.1029 C.ar        1 REF       0.1561
     17 O19        36.6347   -9.2000   11.9541 O.3         1 REF      -0.3376
     18 O20        37.9821   -9.0090    9.5649 O.3         1 REF      -0.3385
     19 O21        38.2399   -3.9643    8.5180 O.2         1 REF      -0.3660
     20 O22        36.0902   -0.7169   11.5416 O.3         1 REF      -0.3376
     21 O23        34.6751   -0.8961   13.9116 O.3         1 REF      -0.3385
     22 O24        34.5153   -5.9243   14.9984 O.2         1 REF      -0.3660
     23 H1         38.3264   -6.5834    8.7195 H           1 REF       0.0486
     24 H2         34.3617   -3.3122   14.7600 H           1 REF       0.0486
     25 H3         36.6489   -9.0764   12.9321 H           1 REF       0.2424
     26 H4         37.3585   -9.1493    8.8163 H           1 REF       0.2440
     27 H5         35.6934   -0.7805   10.6291 H           1 REF       0.2424
     28 H6         35.4592   -0.4007   14.2438 H           1 REF       0.2440
@<TRIPOS>BOND
     1     1     2  ar
     2     1     6   1
     3     1    14  ar
     4     2     3   1
     5     2    11  ar
     6     3     4  ar
     7     3     7  ar
     8     4     5   1
     9     4    10  ar
    10     5     6   1
    11     6    22   2
    12     7     8  ar
    13     7    13   1
    14     8     9  ar
    15     9    10  ar
    16     9    18   1
    17    10    17   1
    18    11    12   1
    19    11    16  ar
    20    12    13   1
    21    13    19   2
    22    14    15  ar
    23    15    16  ar
    24    15    21   1
    25    16    20   1
    26     8    23   1
    27    14    24   1
    28    17    25   1
    29    18    26   1
    30    20    27   1
    31    21    28   1
@<TRIPOS>SUBSTRUCTURE
     1  REF      1

