@<TRIPOS>MOLECULE
2zjw_ligand_029
    28    31
SMALL
GAST_HUCK
****
This file was generated by PARSER (from files_GN.cpp)

@<TRIPOS>ATOM
      1 C1         36.3172    0.0464    1.3345 C.ar        1 REF       0.0450
      2 C2         36.5651    0.3964    2.6839 C.ar        1 REF       0.0162
      3 C3         35.9637    1.5556    3.2646 C.ar        1 REF       0.0162
      4 C4         35.1210    2.3602    2.4593 C.ar        1 REF       0.1580
      5 O5         34.9037    1.9914    1.1530 O.3         1 REF      -0.2195
      6 C6         35.4545    0.8828    0.5753 C.2         1 REF       0.2659
      7 C7         36.1903    1.8996    4.6244 C.ar        1 REF       0.0450
      8 C8         35.5319    3.0261    5.1678 C.ar        1 REF      -0.0299
      9 C9         34.6806    3.8158    4.3666 C.ar        1 REF       0.1153
     10 C10        34.4964    3.4991    3.0070 C.ar        1 REF       0.1561
     11 C11        37.4113   -0.4040    3.4900 C.ar        1 REF       0.1580
     12 O12        37.6329   -0.0338    4.7944 O.3         1 REF      -0.2195
     13 C13        37.0634    1.0639    5.3783 C.2         1 REF       0.2659
     14 C14        36.9411   -1.0981    0.7980 C.ar        1 REF      -0.0299
     15 C15        37.7999   -1.8862    1.5939 C.ar        1 REF       0.1153
     16 C16        38.0284   -1.5438    2.9419 C.ar        1 REF       0.1561
     17 O19        33.6814    4.2642    2.2432 O.3         1 REF      -0.3376
     18 O20        34.0455    4.8936    4.8861 O.3         1 REF      -0.3385
     19 O21        37.3759    1.3278    6.6681 O.2         1 REF      -0.3660
     20 O22        38.8554   -2.3245    3.6867 O.3         1 REF      -0.3376
     21 O23        38.3946   -2.9693    1.0408 O.3         1 REF      -0.3385
     22 O24        35.1461    0.6183   -0.7134 O.2         1 REF      -0.3660
     23 H1         35.6697    3.2816    6.1470 H           1 REF       0.0486
     24 H2         36.7806   -1.3689   -0.1774 H           1 REF       0.0486
     25 H3         34.2691    4.7042    1.5933 H           1 REF       0.2424
     26 H4         33.5729    4.5728    5.6809 H           1 REF       0.2440
     27 H5         38.4681   -2.3510    4.5854 H           1 REF       0.2424
     28 H6         39.3172   -2.6854    0.8664 H           1 REF       0.2440
@<TRIPOS>BOND
     1     1     2  ar
     2     1     6   1
     3     1    14  ar
     4     2     3   1
     5     2    11  ar
     6     3     4  ar
     7     3     7  ar
     8     4     5   1
     9     4    10  ar
    10     5     6   1
    11     6    22   2
    12     7     8  ar
    13     7    13   1
    14     8     9  ar
    15     9    10  ar
    16     9    18   1
    17    10    17   1
    18    11    12   1
    19    11    16  ar
    20    12    13   1
    21    13    19   2
    22    14    15  ar
    23    15    16  ar
    24    15    21   1
    25    16    20   1
    26     8    23   1
    27    14    24   1
    28    17    25   1
    29    18    26   1
    30    20    27   1
    31    21    28   1
@<TRIPOS>SUBSTRUCTURE
     1  REF      1

