@<TRIPOS>MOLECULE
2zjw_ligand_008
    28    31
SMALL
GAST_HUCK
****
This file was generated by PARSER (from files_GN.cpp)

@<TRIPOS>ATOM
      1 C1         37.3831    2.4480    9.1271 C.ar        1 REF       0.0450
      2 C2         37.1652    2.2367    7.7424 C.ar        1 REF       0.0162
      3 C3         36.1487    2.9447    7.0380 C.ar        1 REF       0.0162
      4 C4         35.3392    3.8503    7.7625 C.ar        1 REF       0.1580
      5 O5         35.5652    4.0260    9.1054 O.3         1 REF      -0.2195
      6 C6         36.5429    3.3735    9.8013 C.2         1 REF       0.2659
      7 C7         35.9467    2.7547    5.6476 C.ar        1 REF       0.0450
      8 C8         34.9356    3.4947    4.9937 C.ar        1 REF      -0.0299
      9 C9         34.1165    4.3828    5.7178 C.ar        1 REF       0.1153
     10 C10        34.3107    4.5505    7.1050 C.ar        1 REF       0.1561
     11 C11        37.9610    1.3156    7.0229 C.ar        1 REF       0.1580
     12 O12        37.7381    1.1433    5.6798 O.3         1 REF      -0.2195
     13 C13        36.7783    1.8168    4.9788 C.2         1 REF       0.2659
     14 C14        38.4197    1.7389    9.7728 C.ar        1 REF      -0.0299
     15 C15        39.2077    0.8155    9.0581 C.ar        1 REF       0.1153
     16 C16        38.9789    0.6025    7.6835 C.ar        1 REF       0.1561
     17 O19        33.5189    5.3806    7.8209 O.3         1 REF      -0.3376
     18 O20        33.1642    5.0885    5.0612 O.3         1 REF      -0.3385
     19 O21        36.6492    1.5448    3.6604 O.2         1 REF      -0.3660
     20 O22        39.7457   -0.2683    6.9853 O.3         1 REF      -0.3376
     21 O23        40.1814    0.1266    9.6997 O.3         1 REF      -0.3385
     22 O24        36.6588    3.6213   11.1281 O.2         1 REF      -0.3660
     23 H1         34.7854    3.3888    3.9878 H           1 REF       0.0486
     24 H2         38.6079    1.8913   10.7637 H           1 REF       0.0486
     25 H3         32.6212    4.9690    7.7811 H           1 REF       0.2424
     26 H4         32.3100    4.8167    5.4718 H           1 REF       0.2440
     27 H5         40.6480    0.1222    7.0091 H           1 REF       0.2424
     28 H6         39.7059   -0.5982   10.1619 H           1 REF       0.2440
@<TRIPOS>BOND
     1     1     2  ar
     2     1     6   1
     3     1    14  ar
     4     2     3   1
     5     2    11  ar
     6     3     4  ar
     7     3     7  ar
     8     4     5   1
     9     4    10  ar
    10     5     6   1
    11     6    22   2
    12     7     8  ar
    13     7    13   1
    14     8     9  ar
    15     9    10  ar
    16     9    18   1
    17    10    17   1
    18    11    12   1
    19    11    16  ar
    20    12    13   1
    21    13    19   2
    22    14    15  ar
    23    15    16  ar
    24    15    21   1
    25    16    20   1
    26     8    23   1
    27    14    24   1
    28    17    25   1
    29    18    26   1
    30    20    27   1
    31    21    28   1
@<TRIPOS>SUBSTRUCTURE
     1  REF      1

