@<TRIPOS>MOLECULE
2zjw_ligand_021
    28    31
SMALL
GAST_HUCK
****
This file was generated by PARSER (from files_GN.cpp)

@<TRIPOS>ATOM
      1 C1         36.9636   -0.0321    3.4742 C.ar        1 REF       0.0450
      2 C2         37.0029    0.6582    4.7113 C.ar        1 REF       0.0162
      3 C3         36.2658    1.8611    4.9117 C.ar        1 REF       0.0162
      4 C4         35.4798    2.3495    3.8433 C.ar        1 REF       0.1580
      5 O5         35.4537    1.6565    2.6589 O.3         1 REF      -0.2195
      6 C6         36.1583    0.5090    2.4365 C.2         1 REF       0.2659
      7 C7         36.3148    2.5570    6.1474 C.ar        1 REF       0.0450
      8 C8         35.5536    3.7366    6.2975 C.ar        1 REF      -0.0299
      9 C9         34.7499    4.2117    5.2404 C.ar        1 REF       0.1153
     10 C10        34.7225    3.5244    4.0096 C.ar        1 REF       0.1561
     11 C11        37.7865    0.1609    5.7810 C.ar        1 REF       0.1580
     12 O12        37.8094    0.8533    6.9694 O.3         1 REF      -0.2195
     13 C13        37.1195    2.0134    7.1827 C.2         1 REF       0.2659
     14 C14        37.7254   -1.2105    3.3221 C.ar        1 REF      -0.0299
     15 C15        38.4897   -1.7123    4.3914 C.ar        1 REF       0.1153
     16 C16        38.5220   -1.0262    5.6211 C.ar        1 REF       0.1561
     17 O19        33.9497    3.9824    2.9930 O.3         1 REF      -0.3376
     18 O20        34.0360    5.3612    5.3864 O.3         1 REF      -0.3385
     19 O21        37.2179    2.5956    8.4019 O.2         1 REF      -0.3660
     20 O22        39.2954   -1.4792    6.6325 O.3         1 REF      -0.3376
     21 O23        39.2190   -2.8418    4.2001 O.3         1 REF      -0.3385
     22 O24        36.0306   -0.0871    1.2304 O.2         1 REF      -0.3660
     23 H1         35.5740    4.2613    7.1789 H           1 REF       0.0486
     24 H2         37.7188   -1.7191    2.4286 H           1 REF       0.0486
     25 H3         34.5718    4.1257    2.2368 H           1 REF       0.2424
     26 H4         33.4131    5.1788    6.1372 H           1 REF       0.2440
     27 H5         38.7968   -2.2427    7.0195 H           1 REF       0.2424
     28 H6         38.8748   -3.4813    4.8735 H           1 REF       0.2440
@<TRIPOS>BOND
     1     1     2  ar
     2     1     6   1
     3     1    14  ar
     4     2     3   1
     5     2    11  ar
     6     3     4  ar
     7     3     7  ar
     8     4     5   1
     9     4    10  ar
    10     5     6   1
    11     6    22   2
    12     7     8  ar
    13     7    13   1
    14     8     9  ar
    15     9    10  ar
    16     9    18   1
    17    10    17   1
    18    11    12   1
    19    11    16  ar
    20    12    13   1
    21    13    19   2
    22    14    15  ar
    23    15    16  ar
    24    15    21   1
    25    16    20   1
    26     8    23   1
    27    14    24   1
    28    17    25   1
    29    18    26   1
    30    20    27   1
    31    21    28   1
@<TRIPOS>SUBSTRUCTURE
     1  REF      1

