@<TRIPOS>MOLECULE
2zjw_ligand_003
    28    31
SMALL
GAST_HUCK
****
This file was generated by PARSER (from files_GN.cpp)

@<TRIPOS>ATOM
      1 C1         35.4032    3.1977    5.1537 C.ar        1 REF       0.0450
      2 C2         36.2206    2.3564    5.9511 C.ar        1 REF       0.0162
      3 C3         36.4678    2.6526    7.3238 C.ar        1 REF       0.0162
      4 C4         35.8906    3.8197    7.8777 C.ar        1 REF       0.1580
      5 O5         35.1182    4.6276    7.0841 O.3         1 REF      -0.2195
      6 C6         34.8376    4.3450    5.7763 C.2         1 REF       0.2659
      7 C7         37.2656    1.8006    8.1287 C.ar        1 REF       0.0450
      8 C8         37.4713    2.1343    9.4865 C.ar        1 REF      -0.0299
      9 C9         36.9005    3.2992   10.0359 C.ar        1 REF       0.1153
     10 C10        36.0968    4.1366    9.2327 C.ar        1 REF       0.1561
     11 C11        36.7977    1.1879    5.3993 C.ar        1 REF       0.1580
     12 O12        37.5752    0.3859    6.1992 O.3         1 REF      -0.2195
     13 C13        37.8254    0.6471    7.5162 C.2         1 REF       0.2659
     14 C14        35.1941    2.8627    3.7954 C.ar        1 REF      -0.0299
     15 C15        35.7683    1.6952    3.2484 C.ar        1 REF       0.1153
     16 C16        36.5643    0.8538    4.0523 C.ar        1 REF       0.1561
     17 O19        35.4963    5.2460    9.7256 O.3         1 REF      -0.3376
     18 O20        37.1397    3.5904   11.3385 O.3         1 REF      -0.3385
     19 O21        38.6044   -0.2178    8.2045 O.2         1 REF      -0.3660
     20 O22        37.1341   -0.2685    3.5477 O.3         1 REF      -0.3376
     21 O23        35.5484    1.3683    1.9522 O.3         1 REF      -0.3385
     22 O24        34.0811    5.2256    5.0866 O.2         1 REF      -0.3660
     23 H1         38.0517    1.5392   10.0825 H           1 REF       0.0486
     24 H2         34.6093    3.4574    3.2012 H           1 REF       0.0486
     25 H3         35.1370    4.9810   10.6002 H           1 REF       0.2424
     26 H4         37.4307    4.5275   11.3494 H           1 REF       0.2440
     27 H5         36.3841   -0.8339    3.2570 H           1 REF       0.2424
     28 H6         36.2178    1.8894    1.4580 H           1 REF       0.2440
@<TRIPOS>BOND
     1     1     2  ar
     2     1     6   1
     3     1    14  ar
     4     2     3   1
     5     2    11  ar
     6     3     4  ar
     7     3     7  ar
     8     4     5   1
     9     4    10  ar
    10     5     6   1
    11     6    22   2
    12     7     8  ar
    13     7    13   1
    14     8     9  ar
    15     9    10  ar
    16     9    18   1
    17    10    17   1
    18    11    12   1
    19    11    16  ar
    20    12    13   1
    21    13    19   2
    22    14    15  ar
    23    15    16  ar
    24    15    21   1
    25    16    20   1
    26     8    23   1
    27    14    24   1
    28    17    25   1
    29    18    26   1
    30    20    27   1
    31    21    28   1
@<TRIPOS>SUBSTRUCTURE
     1  REF      1

