@<TRIPOS>MOLECULE
2zjw_ligand_039
    28    31
SMALL
GAST_HUCK
****
This file was generated by PARSER (from files_GN.cpp)

@<TRIPOS>ATOM
      1 C1         35.7864   -9.5206    2.4398 C.ar        1 REF       0.0450
      2 C2         36.2933   -8.7017    3.4804 C.ar        1 REF       0.0162
      3 C3         35.5438   -7.6011    3.9851 C.ar        1 REF       0.0162
      4 C4         34.2731   -7.3419    3.4213 C.ar        1 REF       0.1580
      5 O5         33.8017   -8.1539    2.4181 O.3         1 REF      -0.2195
      6 C6         34.5046   -9.2086    1.9193 C.2         1 REF       0.2659
      7 C7         36.0508   -6.7820    5.0260 C.ar        1 REF       0.0450
      8 C8         35.2704   -5.6958    5.4822 C.ar        1 REF      -0.0299
      9 C9         34.0118   -5.4306    4.9082 C.ar        1 REF       0.1153
     10 C10        33.5079   -6.2537    3.8818 C.ar        1 REF       0.1561
     11 C11        37.5605   -8.9708    4.0504 C.ar        1 REF       0.1580
     12 O12        38.0251   -8.1626    5.0597 O.3         1 REF      -0.2195
     13 C13        37.3284   -7.1004    5.5598 C.2         1 REF       0.2659
     14 C14        36.5634  -10.6035    1.9771 C.ar        1 REF      -0.0299
     15 C15        37.8257  -10.8699    2.5429 C.ar        1 REF       0.1153
     16 C16        38.3231  -10.0547    3.5803 C.ar        1 REF       0.1561
     17 O19        32.2899   -6.0199    3.3322 O.3         1 REF      -0.3376
     18 O20        33.2808   -4.3914    5.3754 O.3         1 REF      -0.3385
     19 O21        37.8970   -6.3737    6.5487 O.2         1 REF      -0.3660
     20 O22        39.5320  -10.3145    4.1307 O.3         1 REF      -0.3376
     21 O23        38.5516  -11.9167    2.0842 O.3         1 REF      -0.3385
     22 O24        33.9411   -9.9341    0.9316 O.2         1 REF      -0.3660
     23 H1         35.6087   -5.0967    6.2383 H           1 REF       0.0486
     24 H2         36.2130  -11.2086    1.2292 H           1 REF       0.0486
     25 H3         32.4399   -5.2887    2.6973 H           1 REF       0.2424
     26 H4         33.5724   -3.6195    4.8493 H           1 REF       0.2440
     27 H5         40.1726   -9.8291    3.5670 H           1 REF       0.2424
     28 H6         39.1740  -11.5246    1.4345 H           1 REF       0.2440
@<TRIPOS>BOND
     1     1     2  ar
     2     1     6   1
     3     1    14  ar
     4     2     3   1
     5     2    11  ar
     6     3     4  ar
     7     3     7  ar
     8     4     5   1
     9     4    10  ar
    10     5     6   1
    11     6    22   2
    12     7     8  ar
    13     7    13   1
    14     8     9  ar
    15     9    10  ar
    16     9    18   1
    17    10    17   1
    18    11    12   1
    19    11    16  ar
    20    12    13   1
    21    13    19   2
    22    14    15  ar
    23    15    16  ar
    24    15    21   1
    25    16    20   1
    26     8    23   1
    27    14    24   1
    28    17    25   1
    29    18    26   1
    30    20    27   1
    31    21    28   1
@<TRIPOS>SUBSTRUCTURE
     1  REF      1

