@<TRIPOS>MOLECULE
2zjw_ligand_019
    28    31
SMALL
GAST_HUCK
****
This file was generated by PARSER (from files_GN.cpp)

@<TRIPOS>ATOM
      1 C1         36.7889   -1.4095    7.3490 C.ar        1 REF       0.0450
      2 C2         36.0965   -0.2910    6.8135 C.ar        1 REF       0.0162
      3 C3         36.6368    1.0256    6.8981 C.ar        1 REF       0.0162
      4 C4         37.8900    1.1998    7.5313 C.ar        1 REF       0.1580
      5 O5         38.5318    0.1064    8.0556 O.3         1 REF      -0.2195
      6 C6         38.0333   -1.1641    7.9898 C.2         1 REF       0.2659
      7 C7         35.9320    2.1429    6.3687 C.ar        1 REF       0.0450
      8 C8         36.4879    3.4348    6.5193 C.ar        1 REF      -0.0299
      9 C9         37.7239    3.6097    7.1684 C.ar        1 REF       0.1153
     10 C10        38.4358    2.4931    7.6562 C.ar        1 REF       0.1561
     11 C11        34.8385   -0.4599    6.1869 C.ar        1 REF       0.1580
     12 O12        34.1930    0.6357    5.6642 O.3         1 REF      -0.2195
     13 C13        34.6893    1.9053    5.7133 C.2         1 REF       0.2659
     14 C14        36.2129   -2.6923    7.2279 C.ar        1 REF      -0.0299
     15 C15        34.9597   -2.8571    6.6035 C.ar        1 REF       0.1153
     16 C16        34.2626   -1.7388    6.0957 C.ar        1 REF       0.1561
     17 O19        39.6512    2.6611    8.2389 O.3         1 REF      -0.3376
     18 O20        38.2352    4.8497    7.3288 O.3         1 REF      -0.3385
     19 O21        33.9677    2.8974    5.1422 O.2         1 REF      -0.3660
     20 O22        33.0519   -1.8954    5.5256 O.3         1 REF      -0.3376
     21 O23        34.4464   -4.1128    6.4975 O.3         1 REF      -0.3385
     22 O24        38.7487   -2.1515    8.5695 O.2         1 REF      -0.3660
     23 H1         35.9945    4.2615    6.1694 H           1 REF       0.0486
     24 H2         36.6997   -3.5160    7.5924 H           1 REF       0.0486
     25 H3         40.2868    2.1838    7.6555 H           1 REF       0.2424
     26 H4         37.9369    5.1060    8.2204 H           1 REF       0.2440
     27 H5         32.4279   -1.4585    6.1391 H           1 REF       0.2424
     28 H6         33.4752   -3.9919    6.3906 H           1 REF       0.2440
@<TRIPOS>BOND
     1     1     2  ar
     2     1     6   1
     3     1    14  ar
     4     2     3   1
     5     2    11  ar
     6     3     4  ar
     7     3     7  ar
     8     4     5   1
     9     4    10  ar
    10     5     6   1
    11     6    22   2
    12     7     8  ar
    13     7    13   1
    14     8     9  ar
    15     9    10  ar
    16     9    18   1
    17    10    17   1
    18    11    12   1
    19    11    16  ar
    20    12    13   1
    21    13    19   2
    22    14    15  ar
    23    15    16  ar
    24    15    21   1
    25    16    20   1
    26     8    23   1
    27    14    24   1
    28    17    25   1
    29    18    26   1
    30    20    27   1
    31    21    28   1
@<TRIPOS>SUBSTRUCTURE
     1  REF      1

