@<TRIPOS>MOLECULE
2zjw_ligand_001
    28    31
SMALL
GAST_HUCK
****
This file was generated by PARSER (from files_GN.cpp)

@<TRIPOS>ATOM
      1 C1         37.5637    0.3365    5.8650 C.ar        1 REF       0.0450
      2 C2         36.8211    0.9158    4.8061 C.ar        1 REF       0.0162
      3 C3         36.0366    2.0900    5.0034 C.ar        1 REF       0.0162
      4 C4         36.0064    2.6708    6.2931 C.ar        1 REF       0.1580
      5 O5         36.7459    2.0962    7.3000 O.3         1 REF      -0.2195
      6 C6         37.5020    0.9686    7.1353 C.2         1 REF       0.2659
      7 C7         35.3056    2.6766    3.9375 C.ar        1 REF       0.0450
      8 C8         34.5707    3.8587    4.1736 C.ar        1 REF      -0.0299
      9 C9         34.5332    4.4287    5.4574 C.ar        1 REF       0.1153
     10 C10        35.2345    3.8277    6.5266 C.ar        1 REF       0.1561
     11 C11        36.8521    0.3403    3.5136 C.ar        1 REF       0.1580
     12 O12        36.1247    0.9151    2.5033 O.3         1 REF      -0.2195
     13 C13        35.3670    2.0393    2.6667 C.2         1 REF       0.2659
     14 C14        38.3369   -0.8165    5.6090 C.ar        1 REF      -0.0299
     15 C15        38.3842   -1.3791    4.3165 C.ar        1 REF       0.1153
     16 C16        37.6341   -0.8041    3.2696 C.ar        1 REF       0.1561
     17 O19        35.1675    4.3731    7.7697 O.3         1 REF      -0.3376
     18 O20        33.8249    5.5755    5.6316 O.3         1 REF      -0.3385
     19 O21        34.6854    2.5042    1.5922 O.2         1 REF      -0.3660
     20 O22        37.6445   -1.3731    2.0342 O.3         1 REF      -0.3376
     21 O23        39.1542   -2.4733    4.0661 O.3         1 REF      -0.3385
     22 O24        38.1851    0.5061    8.2082 O.2         1 REF      -0.3660
     23 H1         34.0593    4.3087    3.4148 H           1 REF       0.0486
     24 H2         38.8778   -1.2501    6.3553 H           1 REF       0.0486
     25 H3         34.9068    3.6188    8.3596 H           1 REF       0.2424
     26 H4         33.2029    5.3962    6.3820 H           1 REF       0.2440
     27 H5         36.7968   -1.8777    2.0000 H           1 REF       0.2424
     28 H6         38.7911   -3.1896    4.6527 H           1 REF       0.2440
@<TRIPOS>BOND
     1     1     2  ar
     2     1     6   1
     3     1    14  ar
     4     2     3   1
     5     2    11  ar
     6     3     4  ar
     7     3     7  ar
     8     4     5   1
     9     4    10  ar
    10     5     6   1
    11     6    22   2
    12     7     8  ar
    13     7    13   1
    14     8     9  ar
    15     9    10  ar
    16     9    18   1
    17    10    17   1
    18    11    12   1
    19    11    16  ar
    20    12    13   1
    21    13    19   2
    22    14    15  ar
    23    15    16  ar
    24    15    21   1
    25    16    20   1
    26     8    23   1
    27    14    24   1
    28    17    25   1
    29    18    26   1
    30    20    27   1
    31    21    28   1
@<TRIPOS>SUBSTRUCTURE
     1  REF      1

