@<TRIPOS>MOLECULE
2zjw_ligand_023
    28    31
SMALL
GAST_HUCK
****
This file was generated by PARSER (from files_GN.cpp)

@<TRIPOS>ATOM
      1 C1         34.0393    4.7354    8.6117 C.ar        1 REF       0.0450
      2 C2         35.3534    4.3025    8.3038 C.ar        1 REF       0.0162
      3 C3         36.3616    4.2342    9.3112 C.ar        1 REF       0.0162
      4 C4         36.0273    4.6111   10.6344 C.ar        1 REF       0.1580
      5 O5         34.7397    5.0039   10.9031 O.3         1 REF      -0.2195
      6 C6         33.7550    5.0742    9.9592 C.2         1 REF       0.2659
      7 C7         37.6798    3.8138    8.9985 C.ar        1 REF       0.0450
      8 C8         38.6478    3.7747   10.0233 C.ar        1 REF      -0.0299
      9 C9         38.3186    4.1657   11.3361 C.ar        1 REF       0.1153
     10 C10        37.0054    4.5833   11.6465 C.ar        1 REF       0.1561
     11 C11        35.6987    3.9504    6.9770 C.ar        1 REF       0.1580
     12 O12        36.9855    3.5435    6.7074 O.3         1 REF      -0.2195
     13 C13        37.9637    3.4613    7.6552 C.2         1 REF       0.2659
     14 C14        33.0880    4.8287    7.5753 C.ar        1 REF      -0.0299
     15 C15        33.4268    4.4734    6.2531 C.ar        1 REF       0.1153
     16 C16        34.7317    4.0306    5.9539 C.ar        1 REF       0.1561
     17 O19        36.6758    4.9718   12.9023 O.3         1 REF      -0.3376
     18 O20        39.2753    4.1464   12.2980 O.3         1 REF      -0.3385
     19 O21        39.1949    3.0614    7.2700 O.2         1 REF      -0.3660
     20 O22        35.0630    3.6864    4.6828 O.3         1 REF      -0.3376
     21 O23        32.5061    4.5801    5.2590 O.3         1 REF      -0.3385
     22 O24        32.5241    5.4616   10.3530 O.2         1 REF      -0.3660
     23 H1         39.5926    3.4713    9.8132 H           1 REF       0.0486
     24 H2         32.1462    5.1721    7.7752 H           1 REF       0.0486
     25 H3         36.9938    4.2580   13.5093 H           1 REF       0.2424
     26 H4         39.1974    3.2587   12.7187 H           1 REF       0.2440
     27 H5         34.9804    2.7046    4.6565 H           1 REF       0.2424
     28 H6         31.6398    4.3290    5.6782 H           1 REF       0.2440
@<TRIPOS>BOND
     1     1     2  ar
     2     1     6   1
     3     1    14  ar
     4     2     3   1
     5     2    11  ar
     6     3     4  ar
     7     3     7  ar
     8     4     5   1
     9     4    10  ar
    10     5     6   1
    11     6    22   2
    12     7     8  ar
    13     7    13   1
    14     8     9  ar
    15     9    10  ar
    16     9    18   1
    17    10    17   1
    18    11    12   1
    19    11    16  ar
    20    12    13   1
    21    13    19   2
    22    14    15  ar
    23    15    16  ar
    24    15    21   1
    25    16    20   1
    26     8    23   1
    27    14    24   1
    28    17    25   1
    29    18    26   1
    30    20    27   1
    31    21    28   1
@<TRIPOS>SUBSTRUCTURE
     1  REF      1

