@<TRIPOS>MOLECULE
2zjw_ligand_011
    28    31
SMALL
GAST_HUCK
****
This file was generated by PARSER (from files_GN.cpp)

@<TRIPOS>ATOM
      1 C1         37.1515  -10.7165    1.9784 C.ar        1 REF       0.0450
      2 C2         37.4209   -9.3950    2.4149 C.ar        1 REF       0.0162
      3 C3         36.3646   -8.4830    2.6989 C.ar        1 REF       0.0162
      4 C4         35.0324   -8.9270    2.5283 C.ar        1 REF       0.1580
      5 O5         34.7998  -10.2113    2.1015 O.3         1 REF      -0.2195
      6 C6         35.7937  -11.1052    1.8266 C.2         1 REF       0.2659
      7 C7         36.6306   -7.1620    3.1415 C.ar        1 REF       0.0450
      8 C8         35.5456   -6.3001    3.4195 C.ar        1 REF      -0.0299
      9 C9         34.2192   -6.7459    3.2508 C.ar        1 REF       0.1153
     10 C10        33.9639   -8.0552    2.8009 C.ar        1 REF       0.1561
     11 C11        38.7543   -8.9491    2.5701 C.ar        1 REF       0.1580
     12 O12        38.9830   -7.6639    2.9963 O.3         1 REF      -0.2195
     13 C13        37.9897   -6.7730    3.2839 C.2         1 REF       0.2659
     14 C14        38.2327  -11.5838    1.7140 C.ar        1 REF      -0.0299
     15 C15        39.5629  -11.1418    1.8815 C.ar        1 REF       0.1153
     16 C16        39.8264   -9.8188    2.2980 C.ar        1 REF       0.1561
     17 O19        32.6919   -8.4809    2.6330 O.3         1 REF      -0.3376
     18 O20        33.1857   -5.9193    3.5347 O.3         1 REF      -0.3385
     19 O21        38.3441   -5.5351    3.6956 O.2         1 REF      -0.3660
     20 O22        41.0959   -9.3477    2.4173 O.3         1 REF      -0.3376
     21 O23        40.5935  -11.9908    1.6460 O.3         1 REF      -0.3385
     22 O24        35.4458  -12.3455    1.4156 O.2         1 REF      -0.3660
     23 H1         35.7132   -5.3457    3.7473 H           1 REF       0.0486
     24 H2         38.0555  -12.5407    1.3949 H           1 REF       0.0486
     25 H3         32.4596   -8.8920    3.4897 H           1 REF       0.2424
     26 H4         32.9639   -5.4885    2.6827 H           1 REF       0.2440
     27 H5         41.6147  -10.0448    2.8706 H           1 REF       0.2424
     28 H6         40.2017  -12.7797    1.2156 H           1 REF       0.2440
@<TRIPOS>BOND
     1     1     2  ar
     2     1     6   1
     3     1    14  ar
     4     2     3   1
     5     2    11  ar
     6     3     4  ar
     7     3     7  ar
     8     4     5   1
     9     4    10  ar
    10     5     6   1
    11     6    22   2
    12     7     8  ar
    13     7    13   1
    14     8     9  ar
    15     9    10  ar
    16     9    18   1
    17    10    17   1
    18    11    12   1
    19    11    16  ar
    20    12    13   1
    21    13    19   2
    22    14    15  ar
    23    15    16  ar
    24    15    21   1
    25    16    20   1
    26     8    23   1
    27    14    24   1
    28    17    25   1
    29    18    26   1
    30    20    27   1
    31    21    28   1
@<TRIPOS>SUBSTRUCTURE
     1  REF      1

