@<TRIPOS>MOLECULE
2zjw_ligand_035
    28    31
SMALL
GAST_HUCK
****
This file was generated by PARSER (from files_GN.cpp)

@<TRIPOS>ATOM
      1 C1         36.3228   -6.1343   -1.4551 C.ar        1 REF       0.0450
      2 C2         36.2831   -7.4538   -0.9372 C.ar        1 REF       0.0162
      3 C3         35.7778   -7.7219    0.3683 C.ar        1 REF       0.0162
      4 C4         35.3230   -6.6312    1.1471 C.ar        1 REF       0.1580
      5 O5         35.3804   -5.3651    0.6213 O.3         1 REF      -0.2195
      6 C6         35.8513   -5.0819   -0.6270 C.2         1 REF       0.2659
      7 C7         35.7307   -9.0427    0.8849 C.ar        1 REF       0.0450
      8 C8         35.2243   -9.2519    2.1865 C.ar        1 REF      -0.0299
      9 C9         34.7782   -8.1620    2.9607 C.ar        1 REF       0.1153
     10 C10        34.8237   -6.8554    2.4421 C.ar        1 REF       0.1561
     11 C11        36.7435   -8.5425   -1.7157 C.ar        1 REF       0.1580
     12 O12        36.6946   -9.8097   -1.1853 O.3         1 REF      -0.2195
     13 C13        36.2146  -10.0938    0.0605 C.2         1 REF       0.2659
     14 C14        36.8230   -5.9227   -2.7596 C.ar        1 REF      -0.0299
     15 C15        37.2756   -7.0071   -3.5360 C.ar        1 REF       0.1153
     16 C16        37.2277   -8.3181   -3.0203 C.ar        1 REF       0.1561
     17 O19        34.3903   -5.8172    3.1942 O.3         1 REF      -0.3376
     18 O20        34.3503   -8.3643    4.2255 O.3         1 REF      -0.3385
     19 O21        36.2087  -11.3839    0.4614 O.2         1 REF      -0.3660
     20 O22        37.6081   -9.3638   -3.7941 O.3         1 REF      -0.3376
     21 O23        37.7372   -6.7799   -4.7887 O.3         1 REF      -0.3385
     22 O24        35.8514   -3.7913   -1.0282 O.2         1 REF      -0.3660
     23 H1         35.1898  -10.1953    2.5844 H           1 REF       0.0486
     24 H2         36.8535   -4.9801   -3.1560 H           1 REF       0.0486
     25 H3         33.4400   -5.7326    2.9703 H           1 REF       0.2424
     26 H4         33.4332   -8.7024    4.1413 H           1 REF       0.2440
     27 H5         36.8251   -9.9549   -3.7833 H           1 REF       0.2424
     28 H6         38.7110   -6.7284   -4.6867 H           1 REF       0.2440
@<TRIPOS>BOND
     1     1     2  ar
     2     1     6   1
     3     1    14  ar
     4     2     3   1
     5     2    11  ar
     6     3     4  ar
     7     3     7  ar
     8     4     5   1
     9     4    10  ar
    10     5     6   1
    11     6    22   2
    12     7     8  ar
    13     7    13   1
    14     8     9  ar
    15     9    10  ar
    16     9    18   1
    17    10    17   1
    18    11    12   1
    19    11    16  ar
    20    12    13   1
    21    13    19   2
    22    14    15  ar
    23    15    16  ar
    24    15    21   1
    25    16    20   1
    26     8    23   1
    27    14    24   1
    28    17    25   1
    29    18    26   1
    30    20    27   1
    31    21    28   1
@<TRIPOS>SUBSTRUCTURE
     1  REF      1

