@<TRIPOS>MOLECULE
2zjw_ligand_010
    28    31
SMALL
GAST_HUCK
****
This file was generated by PARSER (from files_GN.cpp)

@<TRIPOS>ATOM
      1 C1         34.6257    2.6566    1.6547 C.ar        1 REF       0.0450
      2 C2         35.3533    2.1020    2.7385 C.ar        1 REF       0.0162
      3 C3         35.2909    2.6814    4.0399 C.ar        1 REF       0.0162
      4 C4         34.4812    3.8233    4.2239 C.ar        1 REF       0.1580
      5 O5         33.7842    4.3385    3.1605 O.3         1 REF      -0.2195
      6 C6         33.8296    3.8067    1.9081 C.2         1 REF       0.2659
      7 C7         36.0115    2.1285    5.1287 C.ar        1 REF       0.0450
      8 C8         35.9062    2.7391    6.3995 C.ar        1 REF      -0.0299
      9 C9         35.0894    3.8735    6.5839 C.ar        1 REF       0.1153
     10 C10        34.3804    4.4200    5.4932 C.ar        1 REF       0.1561
     11 C11        36.1545    0.9515    2.5527 C.ar        1 REF       0.1580
     12 O12        36.8474    0.4412    3.6212 O.3         1 REF      -0.2195
     13 C13        36.8066    0.9760    4.8781 C.2         1 REF       0.2659
     14 C14        34.7218    2.0532    0.3853 C.ar        1 REF      -0.0299
     15 C15        35.5239    0.9121    0.1952 C.ar        1 REF       0.1153
     16 C16        36.2344    0.3531    1.2786 C.ar        1 REF       0.1561
     17 O19        33.5736    5.4991    5.6517 O.3         1 REF      -0.3376
     18 O20        34.9650    4.4194    7.8180 O.3         1 REF      -0.3385
     19 O21        37.5315    0.3766    5.8491 O.2         1 REF      -0.3660
     20 O22        36.9872   -0.7592    1.0797 O.3         1 REF      -0.3376
     21 O23        35.5907    0.3468   -1.0348 O.3         1 REF      -0.3385
     22 O24        33.1040    4.4112    0.9403 O.2         1 REF      -0.3660
     23 H1         36.4036    2.3516    7.2049 H           1 REF       0.0486
     24 H2         34.2043    2.4392   -0.4064 H           1 REF       0.0486
     25 H3         32.8690    5.2024    6.2755 H           1 REF       0.2424
     26 H4         34.8825    3.6403    8.4238 H           1 REF       0.2440
     27 H5         36.5733   -1.4475    1.6426 H           1 REF       0.2424
     28 H6         36.3096    0.8290   -1.4972 H           1 REF       0.2440
@<TRIPOS>BOND
     1     1     2  ar
     2     1     6   1
     3     1    14  ar
     4     2     3   1
     5     2    11  ar
     6     3     4  ar
     7     3     7  ar
     8     4     5   1
     9     4    10  ar
    10     5     6   1
    11     6    22   2
    12     7     8  ar
    13     7    13   1
    14     8     9  ar
    15     9    10  ar
    16     9    18   1
    17    10    17   1
    18    11    12   1
    19    11    16  ar
    20    12    13   1
    21    13    19   2
    22    14    15  ar
    23    15    16  ar
    24    15    21   1
    25    16    20   1
    26     8    23   1
    27    14    24   1
    28    17    25   1
    29    18    26   1
    30    20    27   1
    31    21    28   1
@<TRIPOS>SUBSTRUCTURE
     1  REF      1

