@<TRIPOS>MOLECULE
2zjw_ligand_027
    28    31
SMALL
GAST_HUCK
****
This file was generated by PARSER (from files_GN.cpp)

@<TRIPOS>ATOM
      1 C1         37.5117    3.4632    8.9371 C.ar        1 REF       0.0450
      2 C2         36.2678    3.9840    8.4956 C.ar        1 REF       0.0162
      3 C3         35.7891    3.7440    7.1744 C.ar        1 REF       0.0162
      4 C4         36.5823    2.9666    6.2970 C.ar        1 REF       0.1580
      5 O5         37.7766    2.4674    6.7538 O.3         1 REF      -0.2195
      6 C6         38.2533    2.6693    8.0187 C.2         1 REF       0.2659
      7 C7         34.5545    4.2857    6.7258 C.ar        1 REF       0.0450
      8 C8         34.1340    4.0298    5.4029 C.ar        1 REF      -0.0299
      9 C9         34.9230    3.2600    4.5294 C.ar        1 REF       0.1153
     10 C10        36.1547    2.7201    4.9766 C.ar        1 REF       0.1561
     11 C11        35.4767    4.7743    9.3625 C.ar        1 REF       0.1580
     12 O12        34.2887    5.2833    8.9003 O.3         1 REF      -0.2195
     13 C13        33.8061    5.0693    7.6440 C.2         1 REF       0.2659
     14 C14        37.9575    3.7654   10.2370 C.ar        1 REF      -0.0299
     15 C15        37.1866    4.5772   11.0948 C.ar        1 REF       0.1153
     16 C16        35.9370    5.0691   10.6655 C.ar        1 REF       0.1561
     17 O19        36.9769    2.0055    4.1673 O.3         1 REF      -0.3376
     18 O20        34.4782    3.0875    3.2591 O.3         1 REF      -0.3385
     19 O21        32.6337    5.6559    7.3040 O.2         1 REF      -0.3660
     20 O22        35.2127    5.8557   11.4970 O.3         1 REF      -0.3376
     21 O23        37.6422    4.9086   12.3304 O.3         1 REF      -0.3385
     22 O24        39.4352    2.1069    8.3500 O.2         1 REF      -0.3660
     23 H1         33.2491    4.4127    5.0612 H           1 REF       0.0486
     24 H2         38.8599    3.4056   10.5718 H           1 REF       0.0486
     25 H3         36.4662    1.2260    3.8648 H           1 REF       0.2424
     26 H4         34.8994    2.2769    2.9074 H           1 REF       0.2440
     27 H5         34.2867    5.8280   11.1666 H           1 REF       0.2424
     28 H6         38.6221    4.8460   12.2915 H           1 REF       0.2440
@<TRIPOS>BOND
     1     1     2  ar
     2     1     6   1
     3     1    14  ar
     4     2     3   1
     5     2    11  ar
     6     3     4  ar
     7     3     7  ar
     8     4     5   1
     9     4    10  ar
    10     5     6   1
    11     6    22   2
    12     7     8  ar
    13     7    13   1
    14     8     9  ar
    15     9    10  ar
    16     9    18   1
    17    10    17   1
    18    11    12   1
    19    11    16  ar
    20    12    13   1
    21    13    19   2
    22    14    15  ar
    23    15    16  ar
    24    15    21   1
    25    16    20   1
    26     8    23   1
    27    14    24   1
    28    17    25   1
    29    18    26   1
    30    20    27   1
    31    21    28   1
@<TRIPOS>SUBSTRUCTURE
     1  REF      1

