@<TRIPOS>MOLECULE
2zjw_ligand_007
    28    31
SMALL
GAST_HUCK
****
This file was generated by PARSER (from files_GN.cpp)

@<TRIPOS>ATOM
      1 C1         36.9662   -2.3561   10.0541 C.ar        1 REF       0.0450
      2 C2         36.5200   -3.4549   10.8335 C.ar        1 REF       0.0162
      3 C3         35.8293   -3.2553   12.0626 C.ar        1 REF       0.0162
      4 C4         35.5915   -1.9284   12.4944 C.ar        1 REF       0.1580
      5 O5         36.0491   -0.8855   11.7271 O.3         1 REF      -0.2195
      6 C6         36.7041   -1.0468   10.5401 C.2         1 REF       0.2659
      7 C7         35.3814   -4.3541   12.8408 C.ar        1 REF       0.0450
      8 C8         34.6865   -4.1047   14.0434 C.ar        1 REF      -0.0299
      9 C9         34.4258   -2.7853   14.4567 C.ar        1 REF       0.1153
     10 C10        34.8901   -1.6968   13.6953 C.ar        1 REF       0.1561
     11 C11        36.7524   -4.7824   10.4013 C.ar        1 REF       0.1580
     12 O12        36.3166   -5.8281   11.1805 O.3         1 REF      -0.2195
     13 C13        35.6558   -5.6642   12.3645 C.2         1 REF       0.2659
     14 C14        37.6467   -2.6065    8.8421 C.ar        1 REF      -0.0299
     15 C15        37.8676   -3.9279    8.4080 C.ar        1 REF       0.1153
     16 C16        37.4225   -5.0160    9.1851 C.ar        1 REF       0.1561
     17 O19        34.5945   -0.4391   14.1027 O.3         1 REF      -0.3376
     18 O20        33.7474   -2.5687   15.6077 O.3         1 REF      -0.3385
     19 O21        35.2804   -6.7710   13.0465 O.2         1 REF      -0.3660
     20 O22        37.6315   -6.2860    8.7613 O.3         1 REF      -0.3376
     21 O23        38.5032   -4.1415    7.2320 O.3         1 REF      -0.3385
     22 O24        37.1093    0.0638    9.8826 O.2         1 REF      -0.3660
     23 H1         34.3631   -4.8796   14.6253 H           1 REF       0.0486
     24 H2         37.9824   -1.8300    8.2664 H           1 REF       0.0486
     25 H3         35.4236   -0.0772   14.4755 H           1 REF       0.2424
     26 H4         32.8555   -2.2794   15.3212 H           1 REF       0.2440
     27 H5         36.8122   -6.5209    8.2783 H           1 REF       0.2424
     28 H6         37.7825   -4.2186    6.5733 H           1 REF       0.2440
@<TRIPOS>BOND
     1     1     2  ar
     2     1     6   1
     3     1    14  ar
     4     2     3   1
     5     2    11  ar
     6     3     4  ar
     7     3     7  ar
     8     4     5   1
     9     4    10  ar
    10     5     6   1
    11     6    22   2
    12     7     8  ar
    13     7    13   1
    14     8     9  ar
    15     9    10  ar
    16     9    18   1
    17    10    17   1
    18    11    12   1
    19    11    16  ar
    20    12    13   1
    21    13    19   2
    22    14    15  ar
    23    15    16  ar
    24    15    21   1
    25    16    20   1
    26     8    23   1
    27    14    24   1
    28    17    25   1
    29    18    26   1
    30    20    27   1
    31    21    28   1
@<TRIPOS>SUBSTRUCTURE
     1  REF      1

