@<TRIPOS>MOLECULE
2zwz_ligand_000
    30    30
SMALL
GAST_HUCK
****
This file was generated by PARSER (from files_GN.cpp)

@<TRIPOS>ATOM
      1 OAE        -2.9383   27.5271   23.4234 O.3         1 ZWZ      -0.3833
      2 CAK        -2.5406   27.4966   24.7945 C.3         1 ZWZ       0.1308
      3 CAJ        -3.6477   26.7377   25.5798 C.3         1 ZWZ       0.1175
      4 OAD        -4.8976   27.4241   25.4937 O.3         1 ZWZ      -0.3862
      5 CAI        -3.2533   26.5179   27.0621 C.3         1 ZWZ       0.1256
      6 OAC        -3.2557   27.7588   27.7688 O.3         1 ZWZ      -0.3835
      7 CAH        -1.8721   25.8080   27.1607 C.3         1 ZWZ       0.0041
      8 CAA        -1.4228   25.6163   28.6281 C.3         1 ZWZ      -0.0191
      9 NAG        -0.8358   26.5531   26.3943 N.4         1 ZWZ       0.2387
     10 CAL        -1.1528   26.8007   24.9574 C.3         1 ZWZ       0.0474
     11 CAF         0.0072   27.6047   24.2784 C.3         1 ZWZ       0.0111
     12 NAB         0.8233   26.7608   23.3962 N.4         1 ZWZ       0.2226
     13 H1         -2.4849   28.2790   22.9875 H           1 ZWZ       0.2102
     14 H2         -2.4781   28.5198   25.1642 H           1 ZWZ       0.0679
     15 H3         -3.7955   25.7550   25.1154 H           1 ZWZ       0.0649
     16 H4         -4.7736   28.2506   26.0059 H           1 ZWZ       0.2100
     17 H5         -4.0145   25.8843   27.5305 H           1 ZWZ       0.0677
     18 H6         -2.5051   28.2759   27.4116 H           1 ZWZ       0.2102
     19 H7         -1.9635   24.8105   26.7191 H           1 ZWZ       0.0874
     20 H8         -0.5110   25.0193   28.6685 H           1 ZWZ       0.0285
     21 H9         -2.2003   25.0905   29.1921 H           1 ZWZ       0.0285
     22 H10        -1.2336   26.5785   29.1063 H           1 ZWZ       0.0285
     23 H11         0.0189   25.9859   26.4103 H           1 ZWZ       0.2023
     24 H12        -0.6628   27.4555   26.8604 H           1 ZWZ       0.2023
     25 H13        -1.2270   25.8233   24.4678 H           1 ZWZ       0.0931
     26 H14         0.6694   28.0305   25.0325 H           1 ZWZ       0.0870
     27 H15        -0.3683   28.4360   23.6768 H           1 ZWZ       0.0870
     28 H16         1.5323   27.3282   22.9286 H           1 ZWZ       0.1996
     29 H17         0.2319   26.3195   22.6831 H           1 ZWZ       0.1996
     30 H18         1.2771   26.0468   23.9590 H           1 ZWZ       0.1996
@<TRIPOS>BOND
     1     1     2   1
     2     2     3   1
     3     2    10   1
     4     3     4   1
     5     3     5   1
     6     5     6   1
     7     5     7   1
     8     7     8   1
     9     7     9   1
    10     9    10   1
    11    10    11   1
    12    11    12   1
    13     1    13   1
    14     2    14   1
    15     3    15   1
    16     4    16   1
    17     5    17   1
    18     6    18   1
    19     7    19   1
    20     8    20   1
    21     8    21   1
    22     8    22   1
    23     9    23   1
    24     9    24   1
    25    10    25   1
    26    11    26   1
    27    11    27   1
    28    12    28   1
    29    12    29   1
    30    12    30   1
@<TRIPOS>SUBSTRUCTURE
     1  ZWZ      2

