@<TRIPOS>MOLECULE
2zwz_ligand_004
    30    30
SMALL
GAST_HUCK
****
This file was generated by PARSER (from files_GN.cpp)

@<TRIPOS>ATOM
      1 OAE        -4.0456   25.8918   27.4309 O.3         1 ZWZ      -0.3833
      2 CAK        -2.8190   25.8770   26.6987 C.3         1 ZWZ       0.1308
      3 CAJ        -3.0699   26.4085   25.2627 C.3         1 ZWZ       0.1175
      4 OAD        -3.9904   25.5589   24.5870 O.3         1 ZWZ      -0.3862
      5 CAI        -1.7532   26.5391   24.4478 C.3         1 ZWZ       0.1256
      6 OAC        -1.2203   25.2424   24.1641 O.3         1 ZWZ      -0.3835
      7 CAH        -0.7243   27.4013   25.2356 C.3         1 ZWZ       0.0041
      8 CAA         0.6311   27.5578   24.5074 C.3         1 ZWZ      -0.0191
      9 NAG        -0.5062   26.8381   26.5964 N.4         1 ZWZ       0.2387
     10 CAL        -1.7403   26.7315   27.4281 C.3         1 ZWZ       0.0474
     11 CAF        -1.4271   26.2219   28.8620 C.3         1 ZWZ       0.0111
     12 NAB        -0.9903   24.8213   28.9178 N.4         1 ZWZ       0.2226
     13 H1         -4.3094   26.8330   27.4757 H           1 ZWZ       0.2102
     14 H2         -2.4746   24.8407   26.6334 H           1 ZWZ       0.0679
     15 H3         -3.5372   27.3961   25.3303 H           1 ZWZ       0.0649
     16 H4         -3.5000   24.7365   24.3917 H           1 ZWZ       0.2100
     17 H5         -1.9836   27.0243   23.4931 H           1 ZWZ       0.0677
     18 H6         -0.8844   25.2966   23.2420 H           1 ZWZ       0.2102
     19 H7         -1.1387   28.4095   25.3428 H           1 ZWZ       0.0874
     20 H8          1.2838   28.2143   25.0882 H           1 ZWZ       0.0285
     21 H9          0.4811   27.9984   23.5211 H           1 ZWZ       0.0285
     22 H10         1.1267   26.5929   24.3889 H           1 ZWZ       0.0285
     23 H11         0.1361   27.4735   27.0686 H           1 ZWZ       0.2023
     24 H12        -0.0604   25.9180   26.5056 H           1 ZWZ       0.2023
     25 H13        -2.1423   27.7425   27.5480 H           1 ZWZ       0.0931
     26 H14        -2.3133   26.3212   29.4906 H           1 ZWZ       0.0870
     27 H15        -0.6434   26.8399   29.3035 H           1 ZWZ       0.0870
     28 H16        -0.6612   24.6061   29.8612 H           1 ZWZ       0.1996
     29 H17        -0.2367   24.6662   28.2515 H           1 ZWZ       0.1996
     30 H18        -1.7712   24.2067   28.6867 H           1 ZWZ       0.1996
@<TRIPOS>BOND
     1     1     2   1
     2     2     3   1
     3     2    10   1
     4     3     4   1
     5     3     5   1
     6     5     6   1
     7     5     7   1
     8     7     8   1
     9     7     9   1
    10     9    10   1
    11    10    11   1
    12    11    12   1
    13     1    13   1
    14     2    14   1
    15     3    15   1
    16     4    16   1
    17     5    17   1
    18     6    18   1
    19     7    19   1
    20     8    20   1
    21     8    21   1
    22     8    22   1
    23     9    23   1
    24     9    24   1
    25    10    25   1
    26    11    26   1
    27    11    27   1
    28    12    28   1
    29    12    29   1
    30    12    30   1
@<TRIPOS>SUBSTRUCTURE
     1  ZWZ      2

