@<TRIPOS>MOLECULE
2zwz_ligand_007
    30    30
SMALL
GAST_HUCK
****
This file was generated by PARSER (from files_GN.cpp)

@<TRIPOS>ATOM
      1 OAE         0.2372   25.7842   24.2613 O.3         1 ZWZ      -0.3833
      2 CAK        -1.0455   26.1855   24.7477 C.3         1 ZWZ       0.1308
      3 CAJ        -1.4662   25.3200   25.9706 C.3         1 ZWZ       0.1175
      4 OAD        -1.4939   23.9366   25.6321 O.3         1 ZWZ      -0.3862
      5 CAI        -2.8529   25.7822   26.5100 C.3         1 ZWZ       0.1256
      6 OAC        -3.8844   25.6221   25.5240 O.3         1 ZWZ      -0.3835
      7 CAH        -2.7801   27.2844   26.9102 C.3         1 ZWZ       0.0041
      8 CAA        -4.1125   27.8574   27.4569 C.3         1 ZWZ      -0.0191
      9 NAG        -2.3533   28.0857   25.7364 N.4         1 ZWZ       0.2387
     10 CAL        -1.0545   27.6962   25.1258 C.3         1 ZWZ       0.0474
     11 CAF        -0.7444   28.6158   23.9100 C.3         1 ZWZ       0.0111
     12 NAB         0.6851   28.9437   23.8202 N.4         1 ZWZ       0.2226
     13 H1          0.9010   26.2496   24.8284 H           1 ZWZ       0.2102
     14 H2         -1.7616   26.0036   23.9464 H           1 ZWZ       0.0679
     15 H3         -0.7199   25.4257   26.7655 H           1 ZWZ       0.0649
     16 H4         -2.0820   23.8764   24.8488 H           1 ZWZ       0.2100
     17 H5         -3.1051   25.1788   27.3843 H           1 ZWZ       0.0677
     18 H6         -3.6048   24.9042   24.9090 H           1 ZWZ       0.2102
     19 H7         -2.0298   27.4026   27.7031 H           1 ZWZ       0.0874
     20 H8         -3.9669   28.8995   27.7568 H           1 ZWZ       0.0285
     21 H9         -4.4419   27.2926   28.3302 H           1 ZWZ       0.0285
     22 H10        -4.8910   27.8241   26.6966 H           1 ZWZ       0.0285
     23 H11        -2.2612   29.0428   26.0672 H           1 ZWZ       0.2023
     24 H12        -3.0974   28.0453   25.0337 H           1 ZWZ       0.2023
     25 H13        -0.2899   27.8676   25.8858 H           1 ZWZ       0.0931
     26 H14        -1.2811   29.5616   24.0010 H           1 ZWZ       0.0870
     27 H15        -1.0542   28.1461   22.9755 H           1 ZWZ       0.0870
     28 H16         0.8580   29.4977   22.9794 H           1 ZWZ       0.1996
     29 H17         1.2463   28.0896   23.7755 H           1 ZWZ       0.1996
     30 H18         0.9636   29.4861   24.6393 H           1 ZWZ       0.1996
@<TRIPOS>BOND
     1     1     2   1
     2     2     3   1
     3     2    10   1
     4     3     4   1
     5     3     5   1
     6     5     6   1
     7     5     7   1
     8     7     8   1
     9     7     9   1
    10     9    10   1
    11    10    11   1
    12    11    12   1
    13     1    13   1
    14     2    14   1
    15     3    15   1
    16     4    16   1
    17     5    17   1
    18     6    18   1
    19     7    19   1
    20     8    20   1
    21     8    21   1
    22     8    22   1
    23     9    23   1
    24     9    24   1
    25    10    25   1
    26    11    26   1
    27    11    27   1
    28    12    28   1
    29    12    29   1
    30    12    30   1
@<TRIPOS>SUBSTRUCTURE
     1  ZWZ      2

