@<TRIPOS>MOLECULE
2zwz_ligand_006
    30    30
SMALL
GAST_HUCK
****
This file was generated by PARSER (from files_GN.cpp)

@<TRIPOS>ATOM
      1 OAE         0.2564   27.2908   26.3893 O.3         1 ZWZ      -0.3833
      2 CAK        -1.0671   26.7389   26.3946 C.3         1 ZWZ       0.1308
      3 CAJ        -1.6280   26.7456   27.8453 C.3         1 ZWZ       0.1175
      4 OAD        -0.7792   25.9667   28.6923 O.3         1 ZWZ      -0.3862
      5 CAI        -3.1010   26.2476   27.9048 C.3         1 ZWZ       0.1256
      6 OAC        -3.1390   24.8380   27.6888 O.3         1 ZWZ      -0.3835
      7 CAH        -3.9827   27.0384   26.8893 C.3         1 ZWZ       0.0041
      8 CAA        -5.4667   26.5989   26.8712 C.3         1 ZWZ      -0.0191
      9 NAG        -3.4182   26.9442   25.5186 N.4         1 ZWZ       0.2387
     10 CAL        -2.0222   27.4640   25.3922 C.3         1 ZWZ       0.0474
     11 CAF        -1.5476   27.3935   23.9134 C.3         1 ZWZ       0.0111
     12 NAB        -1.0064   26.0852   23.5102 N.4         1 ZWZ       0.2226
     13 H1          0.1901   28.1852   25.9947 H           1 ZWZ       0.2102
     14 H2         -0.9776   25.6961   26.0836 H           1 ZWZ       0.0679
     15 H3         -1.6136   27.7630   28.2393 H           1 ZWZ       0.0649
     16 H4         -0.4026   25.2523   28.1336 H           1 ZWZ       0.2100
     17 H5         -3.4985   26.4227   28.9061 H           1 ZWZ       0.0677
     18 H6         -2.6831   24.6759   26.8348 H           1 ZWZ       0.2102
     19 H7         -3.9783   28.0936   27.1811 H           1 ZWZ       0.0874
     20 H8         -6.0464   27.2557   26.2157 H           1 ZWZ       0.0285
     21 H9         -5.8907   26.6600   27.8732 H           1 ZWZ       0.0285
     22 H10        -5.5626   25.5788   26.5071 H           1 ZWZ       0.0285
     23 H11        -4.0156   27.4847   24.8871 H           1 ZWZ       0.2023
     24 H12        -3.4444   25.9667   25.2188 H           1 ZWZ       0.2023
     25 H13        -2.0551   28.5246   25.6554 H           1 ZWZ       0.0931
     26 H14        -0.7579   28.1301   23.7518 H           1 ZWZ       0.0870
     27 H15        -2.3748   27.6398   23.2388 H           1 ZWZ       0.0870
     28 H16        -0.7222   26.1185   22.5278 H           1 ZWZ       0.1996
     29 H17        -1.7078   25.3497   23.6317 H           1 ZWZ       0.1996
     30 H18        -0.1839   25.8711   24.0872 H           1 ZWZ       0.1996
@<TRIPOS>BOND
     1     1     2   1
     2     2     3   1
     3     2    10   1
     4     3     4   1
     5     3     5   1
     6     5     6   1
     7     5     7   1
     8     7     8   1
     9     7     9   1
    10     9    10   1
    11    10    11   1
    12    11    12   1
    13     1    13   1
    14     2    14   1
    15     3    15   1
    16     4    16   1
    17     5    17   1
    18     6    18   1
    19     7    19   1
    20     8    20   1
    21     8    21   1
    22     8    22   1
    23     9    23   1
    24     9    24   1
    25    10    25   1
    26    11    26   1
    27    11    27   1
    28    12    28   1
    29    12    29   1
    30    12    30   1
@<TRIPOS>SUBSTRUCTURE
     1  ZWZ      2

