@<TRIPOS>MOLECULE
2zwz_ligand_002
    30    30
SMALL
GAST_HUCK
****
This file was generated by PARSER (from files_GN.cpp)

@<TRIPOS>ATOM
      1 OAE        -3.5368   26.2935   24.6771 O.3         1 ZWZ      -0.3833
      2 CAK        -3.4647   27.0449   25.8975 C.3         1 ZWZ       0.1308
      3 CAJ        -4.8771   27.4582   26.4200 C.3         1 ZWZ       0.1175
      4 OAD        -5.5940   28.2158   25.4373 O.3         1 ZWZ      -0.3862
      5 CAI        -4.7676   28.2353   27.7669 C.3         1 ZWZ       0.1256
      6 OAC        -4.1713   29.5202   27.5671 O.3         1 ZWZ      -0.3835
      7 CAH        -3.9566   27.4201   28.8194 C.3         1 ZWZ       0.0041
      8 CAA        -3.7284   28.1533   30.1522 C.3         1 ZWZ      -0.0191
      9 NAG        -2.6448   27.0076   28.2518 N.4         1 ZWZ       0.2387
     10 CAL        -2.7172   26.2097   27.0022 C.3         1 ZWZ       0.0474
     11 CAF        -1.2942   25.7506   26.5960 C.3         1 ZWZ       0.0111
     12 NAB        -0.4669   26.8339   26.0616 N.4         1 ZWZ       0.2226
     13 H1         -3.3504   25.3429   24.9223 H           1 ZWZ       0.2102
     14 H2         -2.9133   27.9502   25.6800 H           1 ZWZ       0.0679
     15 H3         -5.4518   26.5465   26.5909 H           1 ZWZ       0.0649
     16 H4         -5.7689   29.1007   25.8339 H           1 ZWZ       0.2100
     17 H5         -5.7668   28.4156   28.1556 H           1 ZWZ       0.0677
     18 H6         -3.2183   29.3557   27.3420 H           1 ZWZ       0.2102
     19 H7         -4.5319   26.5069   29.0550 H           1 ZWZ       0.0874
     20 H8         -3.3235   27.4712   30.8985 H           1 ZWZ       0.0285
     21 H9         -4.6674   28.5549   30.5300 H           1 ZWZ       0.0285
     22 H10        -3.0215   28.9740   30.0214 H           1 ZWZ       0.0285
     23 H11        -2.1441   26.4500   28.9523 H           1 ZWZ       0.2023
     24 H12        -2.0948   27.8394   28.0457 H           1 ZWZ       0.2023
     25 H13        -3.2915   25.3018   27.2167 H           1 ZWZ       0.0931
     26 H14        -1.3617   24.9757   25.8392 H           1 ZWZ       0.0870
     27 H15        -0.7947   25.3399   27.4656 H           1 ZWZ       0.0870
     28 H16         0.4581   26.4145   25.8886 H           1 ZWZ       0.1996
     29 H17        -0.3853   27.6033   26.7255 H           1 ZWZ       0.1996
     30 H18        -0.8515   27.1750   25.1820 H           1 ZWZ       0.1996
@<TRIPOS>BOND
     1     1     2   1
     2     2     3   1
     3     2    10   1
     4     3     4   1
     5     3     5   1
     6     5     6   1
     7     5     7   1
     8     7     8   1
     9     7     9   1
    10     9    10   1
    11    10    11   1
    12    11    12   1
    13     1    13   1
    14     2    14   1
    15     3    15   1
    16     4    16   1
    17     5    17   1
    18     6    18   1
    19     7    19   1
    20     8    20   1
    21     8    21   1
    22     8    22   1
    23     9    23   1
    24     9    24   1
    25    10    25   1
    26    11    26   1
    27    11    27   1
    28    12    28   1
    29    12    29   1
    30    12    30   1
@<TRIPOS>SUBSTRUCTURE
     1  ZWZ      2

