@<TRIPOS>MOLECULE
2zx6_ligand_007
    48    50
SMALL
GAST_HUCK
****
This file was generated by PARSER (from files_GN.cpp)

@<TRIPOS>ATOM
      1 CAS        -5.4093   27.0808   29.4348 C.ar        1 ZX6      -0.0194
      2 CAI        -5.5338   28.2197   28.6144 C.ar        1 ZX6      -0.0746
      3 CAG        -6.7483   28.4306   27.9241 C.ar        1 ZX6      -0.0792
      4 CAF        -7.8129   27.5100   28.0515 C.ar        1 ZX6      -0.0767
      5 CAH        -7.6767   26.3680   28.8701 C.ar        1 ZX6      -0.0443
      6 CAR        -6.4623   26.1687   29.5498 C.ar        1 ZX6       0.0606
      7 NAO        -6.0755   25.1638   30.3488 N.pl3       1 ZX6      -0.2884
      8 CAJ        -4.8138   25.3816   30.7470 C.2         1 ZX6       0.0192
      9 CAQ        -4.3573   26.5878   30.2058 C.2         1 ZX6      -0.0275
     10 CAL        -2.9983   27.1630   30.3566 C.3         1 ZX6       0.0536
     11 CAP        -2.0577   26.5955   29.4060 C.2         1 ZX6       0.1813
     12 OAB        -0.9814   26.1482   29.8071 O.2         1 ZX6      -0.3955
     13 NAM        -2.3657   26.6011   28.1162 N.am        1 ZX6      -0.2806
     14 CAK        -1.6214   26.0618   27.0282 C.3         1 ZX6       0.0762
     15 CAU        -1.5806   27.0514   25.8138 C.3         1 ZX6       0.0273
     16 NAN        -0.2115   27.5993   25.6514 N.4         1 ZX6       0.2364
     17 CAT        -0.0354   28.5572   24.5246 C.3         1 ZX6       0.0040
     18 CAA         1.4345   29.0402   24.4695 C.3         1 ZX6      -0.0191
     19 CAV        -0.4955   27.9338   23.1749 C.3         1 ZX6       0.1256
     20 OAC         0.3895   26.8900   22.7608 O.3         1 ZX6      -0.3835
     21 CAX        -1.9539   27.4038   23.3054 C.3         1 ZX6       0.1174
     22 OAE        -2.3870   26.8017   22.0861 O.3         1 ZX6      -0.3862
     23 CAW        -2.0810   26.3987   24.4846 C.3         1 ZX6       0.1278
     24 OAD        -3.4402   25.9937   24.6263 O.3         1 ZX6      -0.3835
     25 H1         -4.7622   28.8772   28.5066 H           1 ZX6       0.0540
     26 H2         -6.8521   29.2462   27.3190 H           1 ZX6       0.0510
     27 H3         -8.6833   27.6668   27.5391 H           1 ZX6       0.0530
     28 H4         -8.4361   25.6889   28.9538 H           1 ZX6       0.0541
     29 H5         -6.6097   24.3827   30.5667 H           1 ZX6       0.2218
     30 H6         -4.2728   24.7544   31.3466 H           1 ZX6       0.0803
     31 H7         -2.6717   27.0003   31.3890 H           1 ZX6       0.0583
     32 H8         -3.0442   28.2453   30.2173 H           1 ZX6       0.0583
     33 H9         -3.2525   26.9299   27.8907 H           1 ZX6       0.1853
     34 H10        -2.1209   25.1286   26.7494 H           1 ZX6       0.0577
     35 H11        -0.6078   25.7813   27.3335 H           1 ZX6       0.0577
     36 H12        -2.2490   27.8960   26.0240 H           1 ZX6       0.0897
     37 H13         0.4377   26.8193   25.5317 H           1 ZX6       0.2021
     38 H14         0.0210   28.1064   26.5049 H           1 ZX6       0.2021
     39 H15        -0.6551   29.4364   24.7287 H           1 ZX6       0.0874
     40 H16         1.5765   29.7151   23.6227 H           1 ZX6       0.0285
     41 H17         2.1179   28.1934   24.3602 H           1 ZX6       0.0285
     42 H18         1.6892   29.5768   25.3863 H           1 ZX6       0.0285
     43 H19        -0.4695   28.7059   22.3982 H           1 ZX6       0.0677
     44 H20         0.0347   26.5751   21.9063 H           1 ZX6       0.2102
     45 H21        -2.6205   28.2512   23.4906 H           1 ZX6       0.0649
     46 H22        -2.3877   27.5337   21.4322 H           1 ZX6       0.2100
     47 H23        -1.4762   25.5113   24.2738 H           1 ZX6       0.0678
     48 H24        -3.4849   25.1031   24.2079 H           1 ZX6       0.2102
@<TRIPOS>BOND
     1     1     2  ar
     2     1     6  ar
     3     1     9   1
     4     2     3  ar
     5     3     4  ar
     6     4     5  ar
     7     5     6  ar
     8     6     7   1
     9     7     8   1
    10     8     9   2
    11     9    10   1
    12    10    11   1
    13    11    12   2
    14    11    13  am
    15    13    14   1
    16    14    15   1
    17    15    16   1
    18    15    23   1
    19    16    17   1
    20    17    18   1
    21    17    19   1
    22    19    20   1
    23    19    21   1
    24    21    22   1
    25    21    23   1
    26    23    24   1
    27     2    25   1
    28     3    26   1
    29     4    27   1
    30     5    28   1
    31     7    29   1
    32     8    30   1
    33    10    31   1
    34    10    32   1
    35    13    33   1
    36    14    34   1
    37    14    35   1
    38    15    36   1
    39    16    37   1
    40    16    38   1
    41    17    39   1
    42    18    40   1
    43    18    41   1
    44    18    42   1
    45    19    43   1
    46    20    44   1
    47    21    45   1
    48    22    46   1
    49    23    47   1
    50    24    48   1
@<TRIPOS>SUBSTRUCTURE
     1  ZX6      1

