@<TRIPOS>MOLECULE
2zx6_ligand_002
    48    50
SMALL
GAST_HUCK
****
This file was generated by PARSER (from files_GN.cpp)

@<TRIPOS>ATOM
      1 CAS        -2.2686   23.5818   30.5508 C.ar        1 ZX6      -0.0194
      2 CAI        -3.6605   23.7077   30.7304 C.ar        1 ZX6      -0.0746
      3 CAG        -4.3930   22.5852   31.1695 C.ar        1 ZX6      -0.0792
      4 CAF        -3.7413   21.3562   31.4175 C.ar        1 ZX6      -0.0767
      5 CAH        -2.3485   21.2367   31.2310 C.ar        1 ZX6      -0.0443
      6 CAR        -1.6287   22.3659   30.8009 C.ar        1 ZX6       0.0606
      7 NAO        -0.3153   22.5148   30.5819 N.pl3       1 ZX6      -0.2884
      8 CAJ        -0.0791   23.7812   30.1996 C.2         1 ZX6       0.0192
      9 CAQ        -1.2830   24.4910   30.1625 C.2         1 ZX6      -0.0275
     10 CAL        -1.4439   25.9221   29.8124 C.3         1 ZX6       0.0536
     11 CAP        -2.0589   26.1250   28.5149 C.2         1 ZX6       0.1813
     12 OAB        -3.1182   26.7452   28.4448 O.2         1 ZX6      -0.3955
     13 NAM        -1.4476   25.6803   27.4290 N.am        1 ZX6      -0.2806
     14 CAK        -1.8572   25.8327   26.0635 C.3         1 ZX6       0.0762
     15 CAU        -1.2712   27.0968   25.3509 C.3         1 ZX6       0.0273
     16 NAN         0.0425   27.4885   25.9391 N.4         1 ZX6       0.2364
     17 CAT         0.7331   28.6491   25.3119 C.3         1 ZX6       0.0040
     18 CAA         2.0798   28.9273   26.0258 C.3         1 ZX6      -0.0191
     19 CAV         0.9146   28.4149   23.7845 C.3         1 ZX6       0.1256
     20 OAC         1.8177   27.3254   23.5691 O.3         1 ZX6      -0.3835
     21 CAX        -0.4658   28.1183   23.1332 C.3         1 ZX6       0.1174
     22 OAE        -0.3498   27.9358   21.7233 O.3         1 ZX6      -0.3862
     23 CAW        -1.1365   26.8895   23.8059 C.3         1 ZX6       0.1278
     24 OAD        -2.4037   26.6389   23.1935 O.3         1 ZX6      -0.3835
     25 H1         -4.1317   24.5948   30.5501 H           1 ZX6       0.0540
     26 H2         -5.4022   22.6599   31.3086 H           1 ZX6       0.0510
     27 H3         -4.2796   20.5508   31.7471 H           1 ZX6       0.0530
     28 H4         -1.8680   20.3542   31.4174 H           1 ZX6       0.0541
     29 H5          0.3543   21.8209   30.6823 H           1 ZX6       0.2218
     30 H6          0.8437   24.1594   29.9784 H           1 ZX6       0.0803
     31 H7         -0.4652   26.4028   29.7937 H           1 ZX6       0.0583
     32 H8         -2.0157   26.4064   30.6073 H           1 ZX6       0.0583
     33 H9         -0.6061   25.2136   27.5641 H           1 ZX6       0.1853
     34 H10        -2.9502   25.8364   25.9911 H           1 ZX6       0.0577
     35 H11        -1.5165   24.9332   25.5459 H           1 ZX6       0.0577
     36 H12        -1.9698   27.9231   25.5296 H           1 ZX6       0.0897
     37 H13         0.6547   26.6713   25.9151 H           1 ZX6       0.2021
     38 H14        -0.1416   27.7437   26.9078 H           1 ZX6       0.2021
     39 H15         0.1061   29.5363   25.4486 H           1 ZX6       0.0874
     40 H16         2.5919   29.7681   25.5544 H           1 ZX6       0.0285
     41 H17         2.7283   28.0510   25.9866 H           1 ZX6       0.0285
     42 H18         1.9102   29.1796   27.0714 H           1 ZX6       0.0285
     43 H19         1.3366   29.3164   23.3245 H           1 ZX6       0.0677
     44 H20         1.8705   27.2182   22.5990 H           1 ZX6       0.2102
     45 H21        -1.1032   28.9942   23.2593 H           1 ZX6       0.0649
     46 H22        -0.2108   26.9782   21.5852 H           1 ZX6       0.2100
     47 H23        -0.5017   26.0164   23.6205 H           1 ZX6       0.0678
     48 H24        -2.5025   25.6648   23.1999 H           1 ZX6       0.2102
@<TRIPOS>BOND
     1     1     2  ar
     2     1     6  ar
     3     1     9   1
     4     2     3  ar
     5     3     4  ar
     6     4     5  ar
     7     5     6  ar
     8     6     7   1
     9     7     8   1
    10     8     9   2
    11     9    10   1
    12    10    11   1
    13    11    12   2
    14    11    13  am
    15    13    14   1
    16    14    15   1
    17    15    16   1
    18    15    23   1
    19    16    17   1
    20    17    18   1
    21    17    19   1
    22    19    20   1
    23    19    21   1
    24    21    22   1
    25    21    23   1
    26    23    24   1
    27     2    25   1
    28     3    26   1
    29     4    27   1
    30     5    28   1
    31     7    29   1
    32     8    30   1
    33    10    31   1
    34    10    32   1
    35    13    33   1
    36    14    34   1
    37    14    35   1
    38    15    36   1
    39    16    37   1
    40    16    38   1
    41    17    39   1
    42    18    40   1
    43    18    41   1
    44    18    42   1
    45    19    43   1
    46    20    44   1
    47    21    45   1
    48    22    46   1
    49    23    47   1
    50    24    48   1
@<TRIPOS>SUBSTRUCTURE
     1  ZX6      1

