@<TRIPOS>MOLECULE
2zx6_ligand_006
    48    50
SMALL
GAST_HUCK
****
This file was generated by PARSER (from files_GN.cpp)

@<TRIPOS>ATOM
      1 CAS        -2.4159   26.8446   32.5692 C.ar        1 ZX6      -0.0194
      2 CAI        -2.1557   25.7508   33.4205 C.ar        1 ZX6      -0.0746
      3 CAG        -2.9354   25.5896   34.5861 C.ar        1 ZX6      -0.0792
      4 CAF        -3.9598   26.5109   34.8931 C.ar        1 ZX6      -0.0767
      5 CAH        -4.2138   27.6033   34.0380 C.ar        1 ZX6      -0.0443
      6 CAR        -3.4340   27.7507   32.8769 C.ar        1 ZX6       0.0606
      7 NAO        -3.4856   28.6860   31.9168 N.pl3       1 ZX6      -0.2884
      8 CAJ        -2.5408   28.4211   30.9990 C.2         1 ZX6       0.0192
      9 CAQ        -1.8453   27.2674   31.3693 C.2         1 ZX6      -0.0275
     10 CAL        -0.7343   26.6598   30.6053 C.3         1 ZX6       0.0536
     11 CAP        -1.2186   25.9306   29.4464 C.2         1 ZX6       0.1813
     12 OAB        -1.5869   24.7732   29.5985 O.2         1 ZX6      -0.3955
     13 NAM        -1.2827   26.5272   28.2624 N.am        1 ZX6      -0.2806
     14 CAK        -1.7334   25.9314   27.0416 C.3         1 ZX6       0.0762
     15 CAU        -1.7267   26.9574   25.8714 C.3         1 ZX6       0.0273
     16 NAN        -0.3646   27.5332   25.7031 N.4         1 ZX6       0.2364
     17 CAT        -0.2139   28.5242   24.6060 C.3         1 ZX6       0.0040
     18 CAA         1.2463   29.0399   24.5787 C.3         1 ZX6      -0.0191
     19 CAV        -0.6688   27.9282   23.2414 C.3         1 ZX6       0.1256
     20 OAC         0.2547   26.9313   22.7954 O.3         1 ZX6      -0.3835
     21 CAX        -2.1037   27.3364   23.3625 C.3         1 ZX6       0.1174
     22 OAE        -2.4980   26.7326   22.1327 O.3         1 ZX6      -0.3862
     23 CAW        -2.1985   26.3154   24.5326 C.3         1 ZX6       0.1278
     24 OAD        -3.5440   25.8582   24.6603 O.3         1 ZX6      -0.3835
     25 H1         -1.4155   25.0772   33.2000 H           1 ZX6       0.0540
     26 H2         -2.7618   24.8022   35.2100 H           1 ZX6       0.0510
     27 H3         -4.5210   26.3871   35.7375 H           1 ZX6       0.0530
     28 H4         -4.9610   28.2735   34.2523 H           1 ZX6       0.0541
     29 H5         -4.0990   29.4372   31.8921 H           1 ZX6       0.2218
     30 H6         -2.3618   28.9868   30.1652 H           1 ZX6       0.0803
     31 H7         -0.1584   25.9835   31.2462 H           1 ZX6       0.0583
     32 H8         -0.0496   27.4559   30.2982 H           1 ZX6       0.0583
     33 H9         -0.9779   27.4456   28.2142 H           1 ZX6       0.1853
     34 H10        -2.7498   25.5571   27.1875 H           1 ZX6       0.0577
     35 H11        -1.0869   25.0879   26.7971 H           1 ZX6       0.0577
     36 H12        -2.4162   27.7702   26.1334 H           1 ZX6       0.0897
     37 H13         0.2955   26.7661   25.5609 H           1 ZX6       0.2021
     38 H14        -0.1273   28.0265   26.5611 H           1 ZX6       0.2021
     39 H15        -0.8567   29.3842   24.8353 H           1 ZX6       0.0874
     40 H16         1.3799   29.7402   23.7520 H           1 ZX6       0.0285
     41 H17         1.9453   28.2118   24.4555 H           1 ZX6       0.0285
     42 H18         1.4761   29.5550   25.5114 H           1 ZX6       0.0285
     43 H19        -0.6816   28.7257   22.4929 H           1 ZX6       0.0677
     44 H20        -0.0590   26.6672   21.9083 H           1 ZX6       0.2102
     45 H21        -2.8021   28.1548   23.5549 H           1 ZX6       0.0649
     46 H22        -2.4562   27.4581   21.4758 H           1 ZX6       0.2100
     47 H23        -1.5663   25.4475   24.3088 H           1 ZX6       0.0678
     48 H24        -3.6141   25.1070   24.0286 H           1 ZX6       0.2102
@<TRIPOS>BOND
     1     1     2  ar
     2     1     6  ar
     3     1     9   1
     4     2     3  ar
     5     3     4  ar
     6     4     5  ar
     7     5     6  ar
     8     6     7   1
     9     7     8   1
    10     8     9   2
    11     9    10   1
    12    10    11   1
    13    11    12   2
    14    11    13  am
    15    13    14   1
    16    14    15   1
    17    15    16   1
    18    15    23   1
    19    16    17   1
    20    17    18   1
    21    17    19   1
    22    19    20   1
    23    19    21   1
    24    21    22   1
    25    21    23   1
    26    23    24   1
    27     2    25   1
    28     3    26   1
    29     4    27   1
    30     5    28   1
    31     7    29   1
    32     8    30   1
    33    10    31   1
    34    10    32   1
    35    13    33   1
    36    14    34   1
    37    14    35   1
    38    15    36   1
    39    16    37   1
    40    16    38   1
    41    17    39   1
    42    18    40   1
    43    18    41   1
    44    18    42   1
    45    19    43   1
    46    20    44   1
    47    21    45   1
    48    22    46   1
    49    23    47   1
    50    24    48   1
@<TRIPOS>SUBSTRUCTURE
     1  ZX6      1

