@<TRIPOS>MOLECULE
2zx6_ligand_000
    48    50
SMALL
GAST_HUCK
****
This file was generated by PARSER (from files_GN.cpp)

@<TRIPOS>ATOM
      1 CAS        -0.0073   26.3384   31.2663 C.ar        1 ZX6      -0.0194
      2 CAI         0.8193   25.2927   31.7232 C.ar        1 ZX6      -0.0746
      3 CAG         1.7733   25.5710   32.7263 C.ar        1 ZX6      -0.0792
      4 CAF         1.8839   26.8717   33.2685 C.ar        1 ZX6      -0.0767
      5 CAH         1.0336   27.9066   32.8266 C.ar        1 ZX6      -0.0443
      6 CAR         0.0998   27.6201   31.8185 C.ar        1 ZX6       0.0606
      7 NAO        -0.7752   28.4257   31.1998 N.pl3       1 ZX6      -0.2884
      8 CAJ        -1.4195   27.7227   30.2543 C.2         1 ZX6       0.0192
      9 CAQ        -0.9690   26.3981   30.2574 C.2         1 ZX6      -0.0275
     10 CAL        -1.3600   25.2696   29.3763 C.3         1 ZX6       0.0536
     11 CAP        -2.1272   25.6454   28.2029 C.2         1 ZX6       0.1813
     12 OAB        -3.2739   26.0483   28.3581 O.2         1 ZX6      -0.3955
     13 NAM        -1.5514   25.6069   27.0091 N.am        1 ZX6      -0.2806
     14 CAK        -2.0953   26.0228   25.7502 C.3         1 ZX6       0.0762
     15 CAU        -1.4001   27.2991   25.1706 C.3         1 ZX6       0.0273
     16 NAN        -0.0779   27.5415   25.8186 N.4         1 ZX6       0.2364
     17 CAT         0.7430   28.6542   25.2760 C.3         1 ZX6       0.0040
     18 CAA         2.0768   28.7613   26.0589 C.3         1 ZX6      -0.0191
     19 CAV         0.9653   28.4580   23.7488 C.3         1 ZX6       0.1256
     20 OAC         1.7448   27.2796   23.5226 O.3         1 ZX6      -0.3835
     21 CAX        -0.4115   28.3775   23.0310 C.3         1 ZX6       0.1174
     22 OAE        -0.2419   28.2164   21.6178 O.3         1 ZX6      -0.3862
     23 CAW        -1.2927   27.2371   23.6142 C.3         1 ZX6       0.1278
     24 OAD        -2.6037   27.3013   23.0464 O.3         1 ZX6      -0.3835
     25 H1          0.7604   24.3571   31.3109 H           1 ZX6       0.0540
     26 H2          2.4056   24.8284   33.0444 H           1 ZX6       0.0510
     27 H3          2.5901   27.0598   33.9790 H           1 ZX6       0.0530
     28 H4          1.1118   28.8498   33.2085 H           1 ZX6       0.0541
     29 H5         -0.9076   29.3680   31.3905 H           1 ZX6       0.2218
     30 H6         -2.1264   28.1129   29.6336 H           1 ZX6       0.0803
     31 H7         -1.9416   24.5559   29.9599 H           1 ZX6       0.0583
     32 H8         -0.4452   24.7638   29.0567 H           1 ZX6       0.0583
     33 H9         -0.6313   25.2899   26.9788 H           1 ZX6       0.1853
     34 H10        -3.1734   26.1959   25.8143 H           1 ZX6       0.0577
     35 H11        -1.9521   25.1732   25.0805 H           1 ZX6       0.0577
     36 H12        -2.0264   28.1600   25.4208 H           1 ZX6       0.0897
     37 H13         0.4728   26.6845   25.7765 H           1 ZX6       0.2021
     38 H14        -0.2692   27.7732   26.7935 H           1 ZX6       0.2021
     39 H15         0.1992   29.5945   25.4333 H           1 ZX6       0.0874
     40 H16         2.6901   29.5707   25.6586 H           1 ZX6       0.0285
     41 H17         2.6345   27.8277   25.9941 H           1 ZX6       0.0285
     42 H18         1.8798   28.9733   27.1098 H           1 ZX6       0.0285
     43 H19         1.5218   29.3133   23.3501 H           1 ZX6       0.0677
     44 H20         1.7716   27.1700   22.5510 H           1 ZX6       0.2102
     45 H21        -0.9231   29.3344   23.1719 H           1 ZX6       0.0649
     46 H22        -0.3052   27.2489   21.4515 H           1 ZX6       0.2100
     47 H23        -0.8398   26.2849   23.3193 H           1 ZX6       0.0678
     48 H24        -2.5490   27.9031   22.2710 H           1 ZX6       0.2102
@<TRIPOS>BOND
     1     1     2  ar
     2     1     6  ar
     3     1     9   1
     4     2     3  ar
     5     3     4  ar
     6     4     5  ar
     7     5     6  ar
     8     6     7   1
     9     7     8   1
    10     8     9   2
    11     9    10   1
    12    10    11   1
    13    11    12   2
    14    11    13  am
    15    13    14   1
    16    14    15   1
    17    15    16   1
    18    15    23   1
    19    16    17   1
    20    17    18   1
    21    17    19   1
    22    19    20   1
    23    19    21   1
    24    21    22   1
    25    21    23   1
    26    23    24   1
    27     2    25   1
    28     3    26   1
    29     4    27   1
    30     5    28   1
    31     7    29   1
    32     8    30   1
    33    10    31   1
    34    10    32   1
    35    13    33   1
    36    14    34   1
    37    14    35   1
    38    15    36   1
    39    16    37   1
    40    16    38   1
    41    17    39   1
    42    18    40   1
    43    18    41   1
    44    18    42   1
    45    19    43   1
    46    20    44   1
    47    21    45   1
    48    22    46   1
    49    23    47   1
    50    24    48   1
@<TRIPOS>SUBSTRUCTURE
     1  ZX6      1

