@<TRIPOS>MOLECULE
2zx6_ligand_009
    48    50
SMALL
GAST_HUCK
****
This file was generated by PARSER (from files_GN.cpp)

@<TRIPOS>ATOM
      1 CAS        -5.0838   24.8925   30.0113 C.ar        1 ZX6      -0.0194
      2 CAI        -3.6911   24.8718   30.2304 C.ar        1 ZX6      -0.0746
      3 CAG        -3.1961   24.5933   31.5204 C.ar        1 ZX6      -0.0792
      4 CAF        -4.0861   24.3143   32.5770 C.ar        1 ZX6      -0.0767
      5 CAH        -5.4791   24.3192   32.3558 C.ar        1 ZX6      -0.0443
      6 CAR        -5.9570   24.6169   31.0695 C.ar        1 ZX6       0.0606
      7 NAO        -7.2153   24.6762   30.6220 N.pl3       1 ZX6      -0.2884
      8 CAJ        -7.2012   24.9874   29.3200 C.2         1 ZX6       0.0192
      9 CAQ        -5.8819   25.1421   28.8849 C.2         1 ZX6      -0.0275
     10 CAL        -5.5154   25.3959   27.4722 C.3         1 ZX6       0.0536
     11 CAP        -4.3395   26.2281   27.3185 C.2         1 ZX6       0.1813
     12 OAB        -4.4465   27.4420   27.4303 O.2         1 ZX6      -0.3955
     13 NAM        -3.1677   25.6418   27.1227 N.am        1 ZX6      -0.2806
     14 CAK        -1.8899   26.2710   27.0068 C.3         1 ZX6       0.0762
     15 CAU        -1.7377   27.1821   25.7573 C.3         1 ZX6       0.0273
     16 NAN        -0.3226   27.6349   25.6791 N.4         1 ZX6       0.2364
     17 CAT        -0.0163   28.5651   24.5610 C.3         1 ZX6       0.0040
     18 CAA         1.4823   28.9545   24.6163 C.3         1 ZX6      -0.0191
     19 CAV        -0.4356   27.9474   23.1930 C.3         1 ZX6       0.1256
     20 OAC         0.4253   26.8594   22.8483 O.3         1 ZX6      -0.3835
     21 CAX        -1.9192   27.4770   23.2471 C.3         1 ZX6       0.1174
     22 OAE        -2.3206   26.8664   22.0263 O.3         1 ZX6      -0.3862
     23 CAW        -2.1491   26.4921   24.4228 C.3         1 ZX6       0.1278
     24 OAD        -3.5214   26.0986   24.4444 O.3         1 ZX6      -0.3835
     25 H1         -3.0407   25.0606   29.4722 H           1 ZX6       0.0540
     26 H2         -2.1907   24.5911   31.6920 H           1 ZX6       0.0510
     27 H3         -3.7232   24.1057   33.5077 H           1 ZX6       0.0530
     28 H4         -6.1261   24.1083   33.1175 H           1 ZX6       0.0541
     29 H5         -8.0062   24.4970   31.1515 H           1 ZX6       0.2218
     30 H6         -8.0343   25.0646   28.7368 H           1 ZX6       0.0803
     31 H7         -6.3475   25.8703   26.9433 H           1 ZX6       0.0583
     32 H8         -5.3661   24.4241   26.9966 H           1 ZX6       0.0583
     33 H9         -3.1722   24.6744   27.0763 H           1 ZX6       0.1853
     34 H10        -1.1454   25.4747   26.9536 H           1 ZX6       0.0577
     35 H11        -1.6862   26.8483   27.9128 H           1 ZX6       0.0577
     36 H12        -2.3746   28.0588   25.9129 H           1 ZX6       0.0897
     37 H13         0.2833   26.8093   25.6013 H           1 ZX6       0.2021
     38 H14        -0.1082   28.1246   26.5491 H           1 ZX6       0.2021
     39 H15        -0.5926   29.4826   24.7146 H           1 ZX6       0.0874
     40 H16         1.7319   29.6260   23.7931 H           1 ZX6       0.0285
     41 H17         2.1162   28.0662   24.5505 H           1 ZX6       0.0285
     42 H18         1.7005   29.4651   25.5577 H           1 ZX6       0.0285
     43 H19        -0.3369   28.7031   22.4088 H           1 ZX6       0.0677
     44 H20         0.0435   26.4721   22.0341 H           1 ZX6       0.2102
     45 H21        -2.5622   28.3519   23.3946 H           1 ZX6       0.0649
     46 H22        -2.3063   27.5958   21.3787 H           1 ZX6       0.2100
     47 H23        -1.5406   25.5946   24.2734 H           1 ZX6       0.0678
     48 H24        -3.5237   25.1617   24.1501 H           1 ZX6       0.2102
@<TRIPOS>BOND
     1     1     2  ar
     2     1     6  ar
     3     1     9   1
     4     2     3  ar
     5     3     4  ar
     6     4     5  ar
     7     5     6  ar
     8     6     7   1
     9     7     8   1
    10     8     9   2
    11     9    10   1
    12    10    11   1
    13    11    12   2
    14    11    13  am
    15    13    14   1
    16    14    15   1
    17    15    16   1
    18    15    23   1
    19    16    17   1
    20    17    18   1
    21    17    19   1
    22    19    20   1
    23    19    21   1
    24    21    22   1
    25    21    23   1
    26    23    24   1
    27     2    25   1
    28     3    26   1
    29     4    27   1
    30     5    28   1
    31     7    29   1
    32     8    30   1
    33    10    31   1
    34    10    32   1
    35    13    33   1
    36    14    34   1
    37    14    35   1
    38    15    36   1
    39    16    37   1
    40    16    38   1
    41    17    39   1
    42    18    40   1
    43    18    41   1
    44    18    42   1
    45    19    43   1
    46    20    44   1
    47    21    45   1
    48    22    46   1
    49    23    47   1
    50    24    48   1
@<TRIPOS>SUBSTRUCTURE
     1  ZX6      1

