@<TRIPOS>MOLECULE
2zx6_ligand_008
    48    50
SMALL
GAST_HUCK
****
This file was generated by PARSER (from files_GN.cpp)

@<TRIPOS>ATOM
      1 CAS        -2.3645   26.7621   31.7623 C.ar        1 ZX6      -0.0194
      2 CAI        -1.4142   27.5431   31.0748 C.ar        1 ZX6      -0.0746
      3 CAG        -0.4468   28.2516   31.8204 C.ar        1 ZX6      -0.0792
      4 CAF        -0.4352   28.1776   33.2302 C.ar        1 ZX6      -0.0767
      5 CAH        -1.3892   27.3924   33.9124 C.ar        1 ZX6      -0.0443
      6 CAR        -2.3460   26.6904   33.1580 C.ar        1 ZX6       0.0606
      7 NAO        -3.3387   25.8928   33.5677 N.pl3       1 ZX6      -0.2884
      8 CAJ        -3.9974   25.4277   32.4980 C.2         1 ZX6       0.0192
      9 CAQ        -3.4194   25.9456   31.3295 C.2         1 ZX6      -0.0275
     10 CAL        -3.8759   25.6758   29.9466 C.3         1 ZX6       0.0536
     11 CAP        -2.7860   25.3115   29.0582 C.2         1 ZX6       0.1813
     12 OAB        -2.0310   24.4062   29.3795 O.2         1 ZX6      -0.3955
     13 NAM        -2.6298   25.9705   27.9165 N.am        1 ZX6      -0.2806
     14 CAK        -1.5322   25.8265   27.0063 C.3         1 ZX6       0.0762
     15 CAU        -1.6092   26.8659   25.8423 C.3         1 ZX6       0.0273
     16 NAN        -0.2771   27.4965   25.6442 N.4         1 ZX6       0.2364
     17 CAT        -0.1804   28.4829   24.5356 C.3         1 ZX6       0.0040
     18 CAA         1.2641   29.0390   24.4895 C.3         1 ZX6      -0.0191
     19 CAV        -0.6683   27.8761   23.1866 C.3         1 ZX6       0.1256
     20 OAC         0.2281   26.8537   22.7388 O.3         1 ZX6      -0.3835
     21 CAX        -2.0973   27.2870   23.3614 C.3         1 ZX6       0.1174
     22 OAE        -2.5482   26.7142   22.1351 O.3         1 ZX6      -0.3862
     23 CAW        -2.1298   26.2441   24.5137 C.3         1 ZX6       0.1278
     24 OAD        -3.4562   25.7556   24.7386 O.3         1 ZX6      -0.3835
     25 H1         -1.4112   27.5988   30.0555 H           1 ZX6       0.0540
     26 H2          0.2490   28.8211   31.3354 H           1 ZX6       0.0510
     27 H3          0.2638   28.7034   33.7565 H           1 ZX6       0.0530
     28 H4         -1.3950   27.3419   34.9268 H           1 ZX6       0.0541
     29 H5         -3.5533   25.6895   34.4894 H           1 ZX6       0.2218
     30 H6         -4.8078   24.8036   32.5308 H           1 ZX6       0.0803
     31 H7         -4.3968   26.5649   29.5955 H           1 ZX6       0.0583
     32 H8         -4.5926   24.8513   29.9413 H           1 ZX6       0.0583
     33 H9         -3.3027   26.6342   27.6974 H           1 ZX6       0.1853
     34 H10        -1.5252   24.8049   26.6216 H           1 ZX6       0.0577
     35 H11        -0.6050   25.9632   27.5729 H           1 ZX6       0.0577
     36 H12        -2.2917   27.6752   26.1217 H           1 ZX6       0.0897
     37 H13         0.4178   26.7588   25.5132 H           1 ZX6       0.2021
     38 H14        -0.0645   28.0152   26.5003 H           1 ZX6       0.2021
     39 H15        -0.8336   29.3249   24.7814 H           1 ZX6       0.0874
     40 H16         1.3625   29.7652   23.6824 H           1 ZX6       0.0285
     41 H17         1.9876   28.2367   24.3343 H           1 ZX6       0.0285
     42 H18         1.4951   29.5379   25.4344 H           1 ZX6       0.0285
     43 H19        -0.7049   28.6672   22.4265 H           1 ZX6       0.0677
     44 H20         0.9185   27.3154   22.2111 H           1 ZX6       0.2102
     45 H21        -2.7875   28.1048   23.6001 H           1 ZX6       0.0649
     46 H22        -2.5640   27.4588   21.4976 H           1 ZX6       0.2100
     47 H23        -1.4919   25.3997   24.2381 H           1 ZX6       0.0678
     48 H24        -3.5561   24.9792   24.1399 H           1 ZX6       0.2102
@<TRIPOS>BOND
     1     1     2  ar
     2     1     6  ar
     3     1     9   1
     4     2     3  ar
     5     3     4  ar
     6     4     5  ar
     7     5     6  ar
     8     6     7   1
     9     7     8   1
    10     8     9   2
    11     9    10   1
    12    10    11   1
    13    11    12   2
    14    11    13  am
    15    13    14   1
    16    14    15   1
    17    15    16   1
    18    15    23   1
    19    16    17   1
    20    17    18   1
    21    17    19   1
    22    19    20   1
    23    19    21   1
    24    21    22   1
    25    21    23   1
    26    23    24   1
    27     2    25   1
    28     3    26   1
    29     4    27   1
    30     5    28   1
    31     7    29   1
    32     8    30   1
    33    10    31   1
    34    10    32   1
    35    13    33   1
    36    14    34   1
    37    14    35   1
    38    15    36   1
    39    16    37   1
    40    16    38   1
    41    17    39   1
    42    18    40   1
    43    18    41   1
    44    18    42   1
    45    19    43   1
    46    20    44   1
    47    21    45   1
    48    22    46   1
    49    23    47   1
    50    24    48   1
@<TRIPOS>SUBSTRUCTURE
     1  ZX6      1

