@<TRIPOS>MOLECULE
2zx6_ligand_004
    48    50
SMALL
GAST_HUCK
****
This file was generated by PARSER (from files_GN.cpp)

@<TRIPOS>ATOM
      1 CAS        -6.7602   26.3922   29.5602 C.ar        1 ZX6      -0.0194
      2 CAI        -6.2688   25.4558   30.4894 C.ar        1 ZX6      -0.0746
      3 CAG        -7.1850   24.6308   31.1779 C.ar        1 ZX6      -0.0792
      4 CAF        -8.5736   24.7513   30.9383 C.ar        1 ZX6      -0.0767
      5 CAH        -9.0585   25.6887   30.0021 C.ar        1 ZX6      -0.0443
      6 CAR        -8.1316   26.4957   29.3160 C.ar        1 ZX6       0.0606
      7 NAO        -8.3285   27.4403   28.3827 N.pl3       1 ZX6      -0.2884
      8 CAJ        -7.1460   27.9584   28.0201 C.2         1 ZX6       0.0192
      9 CAQ        -6.1282   27.3322   28.7436 C.2         1 ZX6      -0.0275
     10 CAL        -4.6722   27.5444   28.5708 C.3         1 ZX6       0.0536
     11 CAP        -4.0669   26.7087   27.5387 C.2         1 ZX6       0.1813
     12 OAB        -4.6047   25.6620   27.1864 O.2         1 ZX6      -0.3955
     13 NAM        -2.9588   27.1257   26.9356 N.am        1 ZX6      -0.2806
     14 CAK        -2.3686   26.5166   25.7776 C.3         1 ZX6       0.0762
     15 CAU        -1.4315   27.5183   25.0448 C.3         1 ZX6       0.0273
     16 NAN        -0.1109   27.5724   25.7304 N.4         1 ZX6       0.2364
     17 CAT         0.8935   28.4860   25.1228 C.3         1 ZX6       0.0040
     18 CAA         2.2256   28.4142   25.9109 C.3         1 ZX6      -0.0191
     19 CAV         1.0943   28.1812   23.6049 C.3         1 ZX6       0.1256
     20 OAC         1.7712   26.9332   23.4143 O.3         1 ZX6      -0.3835
     21 CAX        -0.2774   28.1712   22.8748 C.3         1 ZX6       0.1174
     22 OAE        -0.1242   27.8724   21.4892 O.3         1 ZX6      -0.3862
     23 CAW        -1.2564   27.1646   23.5396 C.3         1 ZX6       0.1278
     24 OAD        -2.5130   27.1824   22.8609 O.3         1 ZX6      -0.3835
     25 H1         -5.2676   25.3660   30.6641 H           1 ZX6       0.0540
     26 H2         -6.8477   23.9491   31.8560 H           1 ZX6       0.0510
     27 H3         -9.2329   24.1577   31.4435 H           1 ZX6       0.0530
     28 H4        -10.0615   25.7825   29.8266 H           1 ZX6       0.0541
     29 H5         -9.1849   27.7093   28.0208 H           1 ZX6       0.2218
     30 H6         -7.0107   28.6825   27.3178 H           1 ZX6       0.0803
     31 H7         -4.1540   27.3698   29.5171 H           1 ZX6       0.0583
     32 H8         -4.5211   28.5954   28.3137 H           1 ZX6       0.0583
     33 H9         -2.5755   27.9724   27.2289 H           1 ZX6       0.1853
     34 H10        -3.1712   26.2030   25.1010 H           1 ZX6       0.0577
     35 H11        -1.8186   25.6202   26.0784 H           1 ZX6       0.0577
     36 H12        -1.8897   28.5113   25.0939 H           1 ZX6       0.0897
     37 H13         0.2798   26.6272   25.7637 H           1 ZX6       0.2021
     38 H14        -0.2793   27.8988   26.6820 H           1 ZX6       0.2021
     39 H15         0.5158   29.5091   25.2242 H           1 ZX6       0.0874
     40 H16         2.9684   29.0756   25.4607 H           1 ZX6       0.0285
     41 H17         2.6177   27.3958   25.9114 H           1 ZX6       0.0285
     42 H18         2.0774   28.7259   26.9451 H           1 ZX6       0.0285
     43 H19         1.7201   28.9683   23.1711 H           1 ZX6       0.0677
     44 H20         1.3417   26.3129   24.0384 H           1 ZX6       0.2102
     45 H21        -0.6992   29.1821   22.9342 H           1 ZX6       0.0649
     46 H22        -0.9921   28.1163   21.1057 H           1 ZX6       0.2100
     47 H23        -0.8570   26.1524   23.4477 H           1 ZX6       0.0678
     48 H24        -2.5366   28.0159   22.3463 H           1 ZX6       0.2102
@<TRIPOS>BOND
     1     1     2  ar
     2     1     6  ar
     3     1     9   1
     4     2     3  ar
     5     3     4  ar
     6     4     5  ar
     7     5     6  ar
     8     6     7   1
     9     7     8   1
    10     8     9   2
    11     9    10   1
    12    10    11   1
    13    11    12   2
    14    11    13  am
    15    13    14   1
    16    14    15   1
    17    15    16   1
    18    15    23   1
    19    16    17   1
    20    17    18   1
    21    17    19   1
    22    19    20   1
    23    19    21   1
    24    21    22   1
    25    21    23   1
    26    23    24   1
    27     2    25   1
    28     3    26   1
    29     4    27   1
    30     5    28   1
    31     7    29   1
    32     8    30   1
    33    10    31   1
    34    10    32   1
    35    13    33   1
    36    14    34   1
    37    14    35   1
    38    15    36   1
    39    16    37   1
    40    16    38   1
    41    17    39   1
    42    18    40   1
    43    18    41   1
    44    18    42   1
    45    19    43   1
    46    20    44   1
    47    21    45   1
    48    22    46   1
    49    23    47   1
    50    24    48   1
@<TRIPOS>SUBSTRUCTURE
     1  ZX6      1

