@<TRIPOS>MOLECULE
2zx6_ligand_005
    48    50
SMALL
GAST_HUCK
****
This file was generated by PARSER (from files_GN.cpp)

@<TRIPOS>ATOM
      1 CAS        -5.0983   28.3696   30.7584 C.ar        1 ZX6      -0.0194
      2 CAI        -6.4771   28.5978   30.9469 C.ar        1 ZX6      -0.0746
      3 CAG        -6.9659   28.7733   32.2605 C.ar        1 ZX6      -0.0792
      4 CAF        -6.0855   28.7154   33.3645 C.ar        1 ZX6      -0.0767
      5 CAH        -4.7055   28.4904   33.1659 C.ar        1 ZX6      -0.0443
      6 CAR        -4.2319   28.3294   31.8537 C.ar        1 ZX6       0.0606
      7 NAO        -2.9789   28.1510   31.4062 N.pl3       1 ZX6      -0.2884
      8 CAJ        -2.9974   28.0770   30.0652 C.2         1 ZX6       0.0192
      9 CAQ        -4.3178   28.1918   29.6123 C.2         1 ZX6      -0.0275
     10 CAL        -4.7927   28.2239   28.2076 C.3         1 ZX6       0.0536
     11 CAP        -4.2415   27.1788   27.3632 C.2         1 ZX6       0.1813
     12 OAB        -4.9705   26.2845   26.9443 O.2         1 ZX6      -0.3955
     13 NAM        -2.9935   27.3085   26.9341 N.am        1 ZX6      -0.2806
     14 CAK        -2.3815   26.6012   25.8467 C.3         1 ZX6       0.0762
     15 CAU        -1.4486   27.5716   25.0584 C.3         1 ZX6       0.0273
     16 NAN        -0.1196   27.6117   25.7273 N.4         1 ZX6       0.2364
     17 CAT         0.8574   28.5597   25.1330 C.3         1 ZX6       0.0040
     18 CAA         2.1867   28.4996   25.9303 C.3         1 ZX6      -0.0191
     19 CAV         1.0599   28.2965   23.6100 C.3         1 ZX6       0.1256
     20 OAC         1.8205   27.1050   23.3958 O.3         1 ZX6      -0.3835
     21 CAX        -0.3126   28.2154   22.8794 C.3         1 ZX6       0.1174
     22 OAE        -0.1511   27.8772   21.5038 O.3         1 ZX6      -0.3862
     23 CAW        -1.2785   27.1980   23.5577 C.3         1 ZX6       0.1278
     24 OAD        -2.5495   27.1936   22.8971 O.3         1 ZX6      -0.3835
     25 H1         -7.1163   28.6512   30.1510 H           1 ZX6       0.0540
     26 H2         -7.9620   28.9461   32.4113 H           1 ZX6       0.0510
     27 H3         -6.4507   28.8461   34.3120 H           1 ZX6       0.0530
     28 H4         -4.0659   28.4542   33.9611 H           1 ZX6       0.0541
     29 H5         -2.1872   28.0996   31.9630 H           1 ZX6       0.2218
     30 H6         -2.1676   27.9697   29.4786 H           1 ZX6       0.0803
     31 H7         -4.5312   29.1984   27.7824 H           1 ZX6       0.0583
     32 H8         -5.8827   28.1628   28.1815 H           1 ZX6       0.0583
     33 H9         -2.4969   28.0662   27.2761 H           1 ZX6       0.1853
     34 H10        -3.1546   26.1985   25.1727 H           1 ZX6       0.0577
     35 H11        -1.8137   25.7514   26.2443 H           1 ZX6       0.0577
     36 H12        -1.8931   28.5758   25.1014 H           1 ZX6       0.0897
     37 H13         0.2817   26.6721   25.7168 H           1 ZX6       0.2021
     38 H14        -0.2684   27.9041   26.6944 H           1 ZX6       0.2021
     39 H15         0.4588   29.5749   25.2570 H           1 ZX6       0.0874
     40 H16         2.9211   29.1839   25.4961 H           1 ZX6       0.0285
     41 H17         2.5977   27.4872   25.9211 H           1 ZX6       0.0285
     42 H18         2.0241   28.7938   26.9688 H           1 ZX6       0.0285
     43 H19         1.6310   29.1315   23.1913 H           1 ZX6       0.0677
     44 H20         1.8658   27.0108   22.4216 H           1 ZX6       0.2102
     45 H21        -0.7636   29.2158   22.9048 H           1 ZX6       0.0649
     46 H22        -1.0254   28.0852   21.1046 H           1 ZX6       0.2100
     47 H23        -0.8582   26.1943   23.4859 H           1 ZX6       0.0678
     48 H24        -2.5965   28.0398   22.3982 H           1 ZX6       0.2102
@<TRIPOS>BOND
     1     1     2  ar
     2     1     6  ar
     3     1     9   1
     4     2     3  ar
     5     3     4  ar
     6     4     5  ar
     7     5     6  ar
     8     6     7   1
     9     7     8   1
    10     8     9   2
    11     9    10   1
    12    10    11   1
    13    11    12   2
    14    11    13  am
    15    13    14   1
    16    14    15   1
    17    15    16   1
    18    15    23   1
    19    16    17   1
    20    17    18   1
    21    17    19   1
    22    19    20   1
    23    19    21   1
    24    21    22   1
    25    21    23   1
    26    23    24   1
    27     2    25   1
    28     3    26   1
    29     4    27   1
    30     5    28   1
    31     7    29   1
    32     8    30   1
    33    10    31   1
    34    10    32   1
    35    13    33   1
    36    14    34   1
    37    14    35   1
    38    15    36   1
    39    16    37   1
    40    16    38   1
    41    17    39   1
    42    18    40   1
    43    18    41   1
    44    18    42   1
    45    19    43   1
    46    20    44   1
    47    21    45   1
    48    22    46   1
    49    23    47   1
    50    24    48   1
@<TRIPOS>SUBSTRUCTURE
     1  ZX6      1

