@<TRIPOS>MOLECULE
2zxd_ligand_012
    30    30
SMALL
GAST_HUCK
****
This file was generated by PARSER (from files_GN.cpp)

@<TRIPOS>ATOM
      1 CAA         2.0842   27.6117   25.1057 C.3         1 ZXD      -0.0575
      2 CAH         1.1670   27.7336   26.3592 C.3         1 ZXD      -0.0011
      3 CAB         1.7676   28.7878   27.3356 C.3         1 ZXD      -0.0575
      4 CAL        -0.3405   27.9877   25.9546 C.3         1 ZXD       0.0089
      5 NAG        -1.0665   28.8833   26.9022 N.4         1 ZXD       0.2331
      6 CAF        -2.4642   29.1990   26.5391 C.3         1 ZXD      -0.0041
      7 CAI        -3.3037   27.9074   26.3805 C.3         1 ZXD       0.1231
      8 OAC        -4.6270   28.2354   25.9668 O.3         1 ZXD      -0.3838
      9 CAJ        -2.6290   26.9579   25.3560 C.3         1 ZXD       0.1170
     10 OAD        -3.3773   25.7451   25.2555 O.3         1 ZXD      -0.3862
     11 CAK        -1.1565   26.6638   25.7573 C.3         1 ZXD       0.1261
     12 OAE        -1.1700   25.8789   26.9516 O.3         1 ZXD      -0.3835
     13 H1          3.1165   27.4100   25.3963 H           1 ZXD       0.0234
     14 H2          2.0689   28.5379   24.5261 H           1 ZXD       0.0234
     15 H3          1.7480   26.7963   24.4631 H           1 ZXD       0.0234
     16 H4          1.2419   26.7790   26.8896 H           1 ZXD       0.0351
     17 H5          1.1791   28.8380   28.2515 H           1 ZXD       0.0234
     18 H6          1.7873   29.7770   26.8728 H           1 ZXD       0.0234
     19 H7          2.7867   28.5098   27.6245 H           1 ZXD       0.0234
     20 H8         -0.3393   28.5183   24.9940 H           1 ZXD       0.0880
     21 H9         -0.5562   29.7669   26.9548 H           1 ZXD       0.2018
     22 H10        -1.0716   28.4608   27.8312 H           1 ZXD       0.2018
     23 H11        -2.4614   29.7688   25.6088 H           1 ZXD       0.0840
     24 H12        -2.8922   29.8265   27.3225 H           1 ZXD       0.0840
     25 H13        -3.3730   27.4147   27.3547 H           1 ZXD       0.0674
     26 H14        -5.1099   27.3816   25.9382 H           1 ZXD       0.2101
     27 H15        -2.6475   27.4320   24.3707 H           1 ZXD       0.0649
     28 H16        -2.9690   25.2339   24.5240 H           1 ZXD       0.2100
     29 H17        -0.7068   26.0718   24.9561 H           1 ZXD       0.0677
     30 H18        -0.3500   25.3500   26.9132 H           1 ZXD       0.2102
@<TRIPOS>BOND
     1     1     2   1
     2     2     3   1
     3     2     4   1
     4     4     5   1
     5     4    11   1
     6     5     6   1
     7     6     7   1
     8     7     8   1
     9     7     9   1
    10     9    10   1
    11     9    11   1
    12    11    12   1
    13     1    13   1
    14     1    14   1
    15     1    15   1
    16     2    16   1
    17     3    17   1
    18     3    18   1
    19     3    19   1
    20     4    20   1
    21     5    21   1
    22     5    22   1
    23     6    23   1
    24     6    24   1
    25     7    25   1
    26     8    26   1
    27     9    27   1
    28    10    28   1
    29    11    29   1
    30    12    30   1
@<TRIPOS>SUBSTRUCTURE
     1  ZXD      1

