@<TRIPOS>MOLECULE
2zxd_ligand_011
    30    30
SMALL
GAST_HUCK
****
This file was generated by PARSER (from files_GN.cpp)

@<TRIPOS>ATOM
      1 CAA         1.5476   29.4269   24.5252 C.3         1 ZXD      -0.0575
      2 CAH         1.5976   27.8812   24.6958 C.3         1 ZXD      -0.0011
      3 CAB         2.6102   27.4918   25.8120 C.3         1 ZXD      -0.0575
      4 CAL         0.2024   27.1907   24.8781 C.3         1 ZXD       0.0089
      5 NAG        -0.6244   27.3010   23.6426 N.4         1 ZXD       0.2331
      6 CAF        -1.8535   26.4780   23.6616 C.3         1 ZXD      -0.0041
      7 CAI        -2.7616   26.7976   24.8763 C.3         1 ZXD       0.1231
      8 OAC        -3.8835   25.9099   24.8837 O.3         1 ZXD      -0.3838
      9 CAJ        -1.9463   26.7546   26.2062 C.3         1 ZXD       0.1170
     10 OAD        -2.7778   27.2133   27.2734 O.3         1 ZXD      -0.3862
     11 CAK        -0.6563   27.6315   26.1050 C.3         1 ZXD       0.1261
     12 OAE        -1.0422   29.0035   26.0062 O.3         1 ZXD      -0.3835
     13 H1          2.5187   29.8112   24.1975 H           1 ZXD       0.0234
     14 H2          1.2942   29.9201   25.4661 H           1 ZXD       0.0234
     15 H3          0.8057   29.7014   23.7720 H           1 ZXD       0.0234
     16 H4          2.0248   27.4754   23.7714 H           1 ZXD       0.0351
     17 H5          2.7192   26.4029   25.8609 H           1 ZXD       0.0234
     18 H6          2.2828   27.8582   26.7887 H           1 ZXD       0.0234
     19 H7          3.5948   27.9204   25.5919 H           1 ZXD       0.0234
     20 H8          0.4199   26.1255   25.0004 H           1 ZXD       0.0880
     21 H9         -0.0806   26.9879   22.8320 H           1 ZXD       0.2018
     22 H10        -0.8805   28.2854   23.5096 H           1 ZXD       0.2018
     23 H11        -1.5559   25.4265   23.6767 H           1 ZXD       0.0840
     24 H12        -2.3976   26.6626   22.7328 H           1 ZXD       0.0840
     25 H13        -3.1558   27.8106   24.7560 H           1 ZXD       0.0674
     26 H14        -3.5287   25.0205   24.6629 H           1 ZXD       0.2101
     27 H15        -1.6619   25.7201   26.4359 H           1 ZXD       0.0649
     28 H16        -2.2971   26.9830   28.0969 H           1 ZXD       0.2100
     29 H17        -0.0687   27.5136   27.0200 H           1 ZXD       0.0677
     30 H18        -1.4526   29.2270   26.8761 H           1 ZXD       0.2102
@<TRIPOS>BOND
     1     1     2   1
     2     2     3   1
     3     2     4   1
     4     4     5   1
     5     4    11   1
     6     5     6   1
     7     6     7   1
     8     7     8   1
     9     7     9   1
    10     9    10   1
    11     9    11   1
    12    11    12   1
    13     1    13   1
    14     1    14   1
    15     1    15   1
    16     2    16   1
    17     3    17   1
    18     3    18   1
    19     3    19   1
    20     4    20   1
    21     5    21   1
    22     5    22   1
    23     6    23   1
    24     6    24   1
    25     7    25   1
    26     8    26   1
    27     9    27   1
    28    10    28   1
    29    11    29   1
    30    12    30   1
@<TRIPOS>SUBSTRUCTURE
     1  ZXD      1

