@<TRIPOS>MOLECULE
2zxd_ligand_007
    30    30
SMALL
GAST_HUCK
****
This file was generated by PARSER (from files_GN.cpp)

@<TRIPOS>ATOM
      1 CAA        -1.7112   26.6240   24.9979 C.3         1 ZXD      -0.0575
      2 CAH        -1.2311   27.2037   26.3614 C.3         1 ZXD      -0.0011
      3 CAB        -1.6529   26.2363   27.5088 C.3         1 ZXD      -0.0575
      4 CAL         0.3042   27.5516   26.4828 C.3         1 ZXD       0.0089
      5 NAG         0.4694   28.7722   27.3326 N.4         1 ZXD       0.2331
      6 CAF         1.8669   29.1761   27.6287 C.3         1 ZXD      -0.0041
      7 CAI         2.6863   29.3619   26.3291 C.3         1 ZXD       0.1231
      8 OAC         4.0470   29.6121   26.6503 O.3         1 ZXD      -0.3838
      9 CAJ         2.5749   28.0944   25.4448 C.3         1 ZXD       0.1170
     10 OAD         3.2766   28.2885   24.2228 O.3         1 ZXD      -0.3862
     11 CAK         1.0927   27.7491   25.1502 C.3         1 ZXD       0.1261
     12 OAE         0.5111   28.7780   24.3465 O.3         1 ZXD      -0.3835
     13 H1         -2.7693   26.3505   25.0432 H           1 ZXD       0.0234
     14 H2         -1.1445   25.7338   24.7442 H           1 ZXD       0.0234
     15 H3         -1.6002   27.3547   24.1971 H           1 ZXD       0.0234
     16 H4         -1.8019   28.1291   26.5071 H           1 ZXD       0.0351
     17 H5         -1.4110   26.6619   28.4882 H           1 ZXD       0.0234
     18 H6         -1.1306   25.2823   27.4080 H           1 ZXD       0.0234
     19 H7         -2.7299   26.0479   27.4845 H           1 ZXD       0.0234
     20 H8          0.8059   26.7236   27.0070 H           1 ZXD       0.0880
     21 H9         -0.0118   28.6379   28.2309 H           1 ZXD       0.2018
     22 H10         0.0203   29.5507   26.8466 H           1 ZXD       0.2018
     23 H11         2.3294   28.4196   28.2692 H           1 ZXD       0.0840
     24 H12         1.8401   30.1199   28.1816 H           1 ZXD       0.0840
     25 H13         2.2969   30.2267   25.7817 H           1 ZXD       0.0674
     26 H14         4.1993   30.5611   26.4582 H           1 ZXD       0.2101
     27 H15         3.0336   27.2473   25.9612 H           1 ZXD       0.0649
     28 H16         3.2503   27.4192   23.7709 H           1 ZXD       0.2100
     29 H17         1.0797   26.8114   24.5909 H           1 ZXD       0.0677
     30 H18         0.9653   28.7171   23.4777 H           1 ZXD       0.2102
@<TRIPOS>BOND
     1     1     2   1
     2     2     3   1
     3     2     4   1
     4     4     5   1
     5     4    11   1
     6     5     6   1
     7     6     7   1
     8     7     8   1
     9     7     9   1
    10     9    10   1
    11     9    11   1
    12    11    12   1
    13     1    13   1
    14     1    14   1
    15     1    15   1
    16     2    16   1
    17     3    17   1
    18     3    18   1
    19     3    19   1
    20     4    20   1
    21     5    21   1
    22     5    22   1
    23     6    23   1
    24     6    24   1
    25     7    25   1
    26     8    26   1
    27     9    27   1
    28    10    28   1
    29    11    29   1
    30    12    30   1
@<TRIPOS>SUBSTRUCTURE
     1  ZXD      1

