@<TRIPOS>MOLECULE
2zxd_ligand_014
    30    30
SMALL
GAST_HUCK
****
This file was generated by PARSER (from files_GN.cpp)

@<TRIPOS>ATOM
      1 CAA        -2.3997   27.8686   30.8661 C.3         1 ZXD      -0.0575
      2 CAH        -1.5074   27.0217   29.9089 C.3         1 ZXD      -0.0011
      3 CAB        -1.0605   25.7265   30.6555 C.3         1 ZXD      -0.0575
      4 CAL        -2.1359   26.6675   28.5155 C.3         1 ZXD       0.0089
      5 NAG        -1.0501   26.3908   27.5224 N.4         1 ZXD       0.2331
      6 CAF        -1.5063   25.9592   26.1785 C.3         1 ZXD      -0.0041
      7 CAI        -2.5567   26.9128   25.5511 C.3         1 ZXD       0.1231
      8 OAC        -3.0855   26.3551   24.3462 O.3         1 ZXD      -0.3838
      9 CAJ        -3.6925   27.2211   26.5600 C.3         1 ZXD       0.1170
     10 OAD        -4.5880   28.1850   25.9993 O.3         1 ZXD      -0.3862
     11 CAK        -3.1004   27.7358   27.9099 C.3         1 ZXD       0.1261
     12 OAE        -2.4303   28.9818   27.6895 O.3         1 ZXD      -0.3835
     13 H1         -1.8997   28.0126   31.8329 H           1 ZXD       0.0234
     14 H2         -3.3521   27.3712   31.0371 H           1 ZXD       0.0234
     15 H3         -2.5825   28.8658   30.4562 H           1 ZXD       0.0234
     16 H4         -0.6052   27.6238   29.7255 H           1 ZXD       0.0351
     17 H5         -0.4518   25.0878   30.0109 H           1 ZXD       0.0234
     18 H6         -1.9315   25.1563   30.9772 H           1 ZXD       0.0234
     19 H7         -0.4587   25.9787   31.5375 H           1 ZXD       0.0234
     20 H8         -2.7217   25.7437   28.6454 H           1 ZXD       0.0880
     21 H9         -0.4239   25.6583   27.8772 H           1 ZXD       0.2018
     22 H10        -0.5041   27.2480   27.4106 H           1 ZXD       0.2018
     23 H11        -1.9205   24.9538   26.2620 H           1 ZXD       0.0840
     24 H12        -0.6343   25.9192   25.5187 H           1 ZXD       0.0840
     25 H13        -2.0637   27.8567   25.2839 H           1 ZXD       0.0674
     26 H14        -2.9159   25.3857   24.3782 H           1 ZXD       0.2101
     27 H15        -4.2677   26.3066   26.7377 H           1 ZXD       0.0649
     28 H16        -5.3160   28.2738   26.6442 H           1 ZXD       0.2100
     29 H17        -3.9393   27.9030   28.5926 H           1 ZXD       0.0677
     30 H18        -2.0045   29.2348   28.5390 H           1 ZXD       0.2102
@<TRIPOS>BOND
     1     1     2   1
     2     2     3   1
     3     2     4   1
     4     4     5   1
     5     4    11   1
     6     5     6   1
     7     6     7   1
     8     7     8   1
     9     7     9   1
    10     9    10   1
    11     9    11   1
    12    11    12   1
    13     1    13   1
    14     1    14   1
    15     1    15   1
    16     2    16   1
    17     3    17   1
    18     3    18   1
    19     3    19   1
    20     4    20   1
    21     5    21   1
    22     5    22   1
    23     6    23   1
    24     6    24   1
    25     7    25   1
    26     8    26   1
    27     9    27   1
    28    10    28   1
    29    11    29   1
    30    12    30   1
@<TRIPOS>SUBSTRUCTURE
     1  ZXD      1

