@<TRIPOS>MOLECULE
2zxd_ligand_009
    30    30
SMALL
GAST_HUCK
****
This file was generated by PARSER (from files_GN.cpp)

@<TRIPOS>ATOM
      1 CAA        -6.6759   27.5167   27.0701 C.3         1 ZXD      -0.0575
      2 CAH        -5.5256   28.1155   27.9321 C.3         1 ZXD      -0.0011
      3 CAB        -5.5471   27.4745   29.3502 C.3         1 ZXD      -0.0575
      4 CAL        -4.1431   28.0230   27.1889 C.3         1 ZXD       0.0089
      5 NAG        -3.5066   26.6825   27.3286 N.4         1 ZXD       0.2331
      6 CAF        -2.2744   26.4894   26.5314 C.3         1 ZXD      -0.0041
      7 CAI        -1.2128   27.5840   26.8285 C.3         1 ZXD       0.1231
      8 OAC        -0.1209   27.4424   25.9207 O.3         1 ZXD      -0.3838
      9 CAJ        -1.8386   29.0028   26.6993 C.3         1 ZXD       0.1170
     10 OAD        -0.8915   30.0272   26.9951 O.3         1 ZXD      -0.3862
     11 CAK        -3.1152   29.1327   27.5830 C.3         1 ZXD       0.1261
     12 OAE        -2.7738   29.0528   28.9691 O.3         1 ZXD      -0.3835
     13 H1         -7.6379   27.6296   27.5754 H           1 ZXD       0.0234
     14 H2         -6.5020   26.4549   26.8797 H           1 ZXD       0.0234
     15 H3         -6.7421   28.0361   26.1129 H           1 ZXD       0.0234
     16 H4         -5.7673   29.1758   28.0610 H           1 ZXD       0.0351
     17 H5         -4.7898   27.9198   29.9934 H           1 ZXD       0.0234
     18 H6         -5.3692   26.3990   29.2934 H           1 ZXD       0.0234
     19 H7         -6.5196   27.6335   29.8238 H           1 ZXD       0.0234
     20 H8         -4.3485   28.1719   26.1241 H           1 ZXD       0.0880
     21 H9         -4.1842   25.9684   27.0501 H           1 ZXD       0.2018
     22 H10        -3.2720   26.5364   28.3136 H           1 ZXD       0.2018
     23 H11        -2.5296   26.4939   25.4667 H           1 ZXD       0.0840
     24 H12        -1.8568   25.5106   26.7697 H           1 ZXD       0.0840
     25 H13        -0.8306   27.4452   27.8448 H           1 ZXD       0.0674
     26 H14         0.2042   26.5199   26.0395 H           1 ZXD       0.2101
     27 H15        -2.1147   29.1557   25.6519 H           1 ZXD       0.0649
     28 H16        -0.7996   30.0520   27.9710 H           1 ZXD       0.2100
     29 H17        -3.5674   30.1122   27.4093 H           1 ZXD       0.0677
     30 H18        -2.2064   29.8326   29.1564 H           1 ZXD       0.2102
@<TRIPOS>BOND
     1     1     2   1
     2     2     3   1
     3     2     4   1
     4     4     5   1
     5     4    11   1
     6     5     6   1
     7     6     7   1
     8     7     8   1
     9     7     9   1
    10     9    10   1
    11     9    11   1
    12    11    12   1
    13     1    13   1
    14     1    14   1
    15     1    15   1
    16     2    16   1
    17     3    17   1
    18     3    18   1
    19     3    19   1
    20     4    20   1
    21     5    21   1
    22     5    22   1
    23     6    23   1
    24     6    24   1
    25     7    25   1
    26     8    26   1
    27     9    27   1
    28    10    28   1
    29    11    29   1
    30    12    30   1
@<TRIPOS>SUBSTRUCTURE
     1  ZXD      1

