@<TRIPOS>MOLECULE
2zxd_ligand_001
    30    30
SMALL
GAST_HUCK
****
This file was generated by PARSER (from files_GN.cpp)

@<TRIPOS>ATOM
      1 CAA         2.0929   28.7005   27.7981 C.3         1 ZXD      -0.0575
      2 CAH         1.6578   29.3715   26.4621 C.3         1 ZXD      -0.0011
      3 CAB         2.9097   29.5469   25.5558 C.3         1 ZXD      -0.0575
      4 CAL         0.4882   28.5768   25.7730 C.3         1 ZXD       0.0089
      5 NAG         0.3557   28.9338   24.3306 N.4         1 ZXD       0.2331
      6 CAF        -0.6918   28.2042   23.5886 C.3         1 ZXD      -0.0041
      7 CAI        -2.0783   28.4054   24.2435 C.3         1 ZXD       0.1231
      8 OAC        -3.0543   27.6337   23.5415 O.3         1 ZXD      -0.3838
      9 CAJ        -2.0282   27.9940   25.7389 C.3         1 ZXD       0.1170
     10 OAD        -3.2921   28.2490   26.3524 O.3         1 ZXD      -0.3862
     11 CAK        -0.8947   28.7443   26.4954 C.3         1 ZXD       0.1261
     12 OAE        -1.2632   30.1223   26.6289 O.3         1 ZXD      -0.3835
     13 H1          2.9262   29.2370   28.2564 H           1 ZXD       0.0234
     14 H2          2.4005   27.6638   27.6250 H           1 ZXD       0.0234
     15 H3          1.2700   28.7062   28.5149 H           1 ZXD       0.0234
     16 H4          1.3082   30.3815   26.6985 H           1 ZXD       0.0351
     17 H5          2.6720   30.1572   24.6822 H           1 ZXD       0.0234
     18 H6          3.2794   28.5756   25.2189 H           1 ZXD       0.0234
     19 H7          3.7061   30.0551   26.1069 H           1 ZXD       0.0234
     20 H8          0.7549   27.5164   25.7935 H           1 ZXD       0.0880
     21 H9          1.2331   28.7366   23.8406 H           1 ZXD       0.2018
     22 H10         0.1706   29.9359   24.2612 H           1 ZXD       0.2018
     23 H11        -0.4404   27.1407   23.5606 H           1 ZXD       0.0840
     24 H12        -0.7136   28.5759   22.5630 H           1 ZXD       0.0840
     25 H13        -2.3603   29.4609   24.1656 H           1 ZXD       0.0674
     26 H14        -3.0536   28.0106   22.6358 H           1 ZXD       0.2101
     27 H15        -1.8449   26.9161   25.8052 H           1 ZXD       0.0649
     28 H16        -3.2047   27.9300   27.2771 H           1 ZXD       0.2100
     29 H17        -0.8360   28.3195   27.4977 H           1 ZXD       0.0677
     30 H18        -0.9168   30.4049   27.5023 H           1 ZXD       0.2102
@<TRIPOS>BOND
     1     1     2   1
     2     2     3   1
     3     2     4   1
     4     4     5   1
     5     4    11   1
     6     5     6   1
     7     6     7   1
     8     7     8   1
     9     7     9   1
    10     9    10   1
    11     9    11   1
    12    11    12   1
    13     1    13   1
    14     1    14   1
    15     1    15   1
    16     2    16   1
    17     3    17   1
    18     3    18   1
    19     3    19   1
    20     4    20   1
    21     5    21   1
    22     5    22   1
    23     6    23   1
    24     6    24   1
    25     7    25   1
    26     8    26   1
    27     9    27   1
    28    10    28   1
    29    11    29   1
    30    12    30   1
@<TRIPOS>SUBSTRUCTURE
     1  ZXD      1

