@<TRIPOS>MOLECULE
3acw_ligand_007
    43    46
SMALL
GAST_HUCK
****
This file was generated by PARSER (from files_GN.cpp)

@<TRIPOS>ATOM
      1 OAA        57.5041   12.2835   49.9551 O.3         1 MOL      -0.4236
      2 CAB        58.9418    5.3923   55.8002 C.ar        1 MOL      -0.0563
      3 CAC        59.4441    6.6495   56.1619 C.ar        1 MOL      -0.0552
      4 CAD        58.0884    5.2733   54.6907 C.ar        1 MOL      -0.0552
      5 CAE        59.0992    7.7877   55.4200 C.ar        1 MOL      -0.0454
      6 CAF        57.7590    6.4135   53.9307 C.ar        1 MOL      -0.0454
      7 CAG        58.8780    9.9323   53.3565 C.ar        1 MOL      -0.0261
      8 CAH        56.7290    8.9991   52.8000 C.ar        1 MOL      -0.0261
      9 CAI        58.5600   11.0968   52.6320 C.ar        1 MOL      -0.0390
     10 CAJ        56.4307   10.1496   52.0510 C.ar        1 MOL      -0.0390
     11 CAK        56.9329   14.2775   53.1595 C.3         1 MOL      -0.0152
     12 CAL        57.3028   15.0751   50.7997 C.3         1 MOL      -0.0152
     13 CAM        55.3992   14.4918   52.9317 C.3         1 MOL      -0.0331
     14 CAN        55.7658   15.2355   50.6051 C.3         1 MOL      -0.0331
     15 CAO        55.4017   12.8550   51.1069 C.3         1 MOL      -0.0283
     16 CAP        58.2677    7.6997   54.2719 C.ar        1 MOL       0.0022
     17 CAQ        57.9542    8.8653   53.4946 C.ar        1 MOL       0.0101
     18 CAR        57.2920   11.2765   52.0216 C.ar        1 MOL      -0.0233
     19 CAS        57.6021   13.8990   51.7950 C.3         1 MOL      -0.0252
     20 NAT        55.0411   14.2591   51.4864 N.4         1 MOL       0.2304
     21 CAU        56.9558   12.5474   51.2576 C.3         1 MOL       0.0922
     22 H1         58.4680   12.1499   50.0854 H           1 MOL       0.1945
     23 H2         59.1823    4.5636   56.3511 H           1 MOL       0.0663
     24 H3         60.0637    6.7414   56.9743 H           1 MOL       0.0633
     25 H4         57.7127    4.3597   54.4307 H           1 MOL       0.0633
     26 H5         59.4543    8.6937   55.7382 H           1 MOL       0.0672
     27 H6         57.1488    6.2825   53.1251 H           1 MOL       0.0672
     28 H7         59.8011    9.8792   53.7837 H           1 MOL       0.0700
     29 H8         56.0233    8.2579   52.8431 H           1 MOL       0.0700
     30 H9         59.2888   11.8018   52.5448 H           1 MOL       0.0838
     31 H10        55.5598   10.1411   51.5073 H           1 MOL       0.0838
     32 H11        57.1089   13.4905   53.8938 H           1 MOL       0.0312
     33 H12        57.3858   15.1932   53.5508 H           1 MOL       0.0312
     34 H13        57.7124   16.0136   51.1859 H           1 MOL       0.0312
     35 H14        57.7859   14.8826   49.8379 H           1 MOL       0.0312
     36 H15        55.1076   15.5015   53.2267 H           1 MOL       0.0814
     37 H16        54.8340   13.8059   53.5678 H           1 MOL       0.0814
     38 H17        55.5034   15.0649   49.5606 H           1 MOL       0.0814
     39 H18        55.4427   16.2479   50.8555 H           1 MOL       0.0814
     40 H19        55.0726   12.6499   50.0801 H           1 MOL       0.0725
     41 H20        54.7828   12.2258   51.7553 H           1 MOL       0.0725
     42 H21        58.6828   13.8256   51.9184 H           1 MOL       0.0225
     43 H22        54.0380   14.3821   51.3626 H           1 MOL       0.2025
@<TRIPOS>BOND
     1    21     1   1
     2     3     2  ar
     3     4     2  ar
     4     5     3  ar
     5     6     4  ar
     6    16     5  ar
     7    16     6  ar
     8     9     7  ar
     9     7    17  ar
    10    10     8  ar
    11     8    17  ar
    12    18     9  ar
    13    18    10  ar
    14    13    11   1
    15    11    19   1
    16    14    12   1
    17    12    19   1
    18    20    13   1
    19    20    14   1
    20    15    20   1
    21    21    15   1
    22    17    16   1
    23    18    21   1
    24    19    21   1
    25     1    22   1
    26     2    23   1
    27     3    24   1
    28     4    25   1
    29     5    26   1
    30     6    27   1
    31     7    28   1
    32     8    29   1
    33     9    30   1
    34    10    31   1
    35    11    32   1
    36    11    33   1
    37    12    34   1
    38    12    35   1
    39    13    36   1
    40    13    37   1
    41    14    38   1
    42    14    39   1
    43    15    40   1
    44    15    41   1
    45    19    42   1
    46    20    43   1
@<TRIPOS>SUBSTRUCTURE
     1  MOL      2

