@<TRIPOS>MOLECULE
3acw_ligand_020
    43    46
SMALL
GAST_HUCK
****
This file was generated by PARSER (from files_GN.cpp)

@<TRIPOS>ATOM
      1 OAA        56.4471    1.7055   53.6583 O.3         1 MOL      -0.4236
      2 CAB        50.5152   -4.0687   49.9988 C.ar        1 MOL      -0.0563
      3 CAC        51.4756   -3.5536   49.1040 C.ar        1 MOL      -0.0552
      4 CAD        50.3945   -3.5178   51.2901 C.ar        1 MOL      -0.0552
      5 CAE        52.3226   -2.5042   49.5077 C.ar        1 MOL      -0.0454
      6 CAF        51.2349   -2.4602   51.6879 C.ar        1 MOL      -0.0454
      7 CAG        52.6282    0.4180   51.3497 C.ar        1 MOL      -0.0261
      8 CAH        54.4495   -1.1843   51.4834 C.ar        1 MOL      -0.0261
      9 CAI        53.5116    1.4479   51.7385 C.ar        1 MOL      -0.0390
     10 CAJ        55.3152   -0.1576   51.8919 C.ar        1 MOL      -0.0390
     11 CAK        55.0005    4.4433   51.4377 C.3         1 MOL      -0.0152
     12 CAL        56.4914    4.5200   53.4593 C.3         1 MOL      -0.0152
     13 CAM        56.2987    4.5822   50.5749 C.3         1 MOL      -0.0331
     14 CAN        57.7643    4.4761   52.5530 C.3         1 MOL      -0.0331
     15 CAO        57.0735    2.4126   51.4080 C.3         1 MOL      -0.0283
     16 CAP        52.2164   -1.9466   50.8047 C.ar        1 MOL       0.0022
     17 CAQ        53.0935   -0.9085   51.2078 C.ar        1 MOL       0.0101
     18 CAR        54.8826    1.1891   52.0064 C.ar        1 MOL      -0.0233
     19 CAS        55.3509    3.6915   52.7712 C.3         1 MOL      -0.0252
     20 NAT        57.4432    3.8600   51.2230 N.4         1 MOL       0.2304
     21 CAU        55.8846    2.2360   52.4452 C.3         1 MOL       0.0922
     22 H1         55.7110    1.6642   54.3060 H           1 MOL       0.1945
     23 H2         49.9043   -4.8314   49.7082 H           1 MOL       0.0663
     24 H3         51.5605   -3.9508   48.1644 H           1 MOL       0.0633
     25 H4         49.6944   -3.8919   51.9372 H           1 MOL       0.0633
     26 H5         53.0135   -2.1450   48.8436 H           1 MOL       0.0672
     27 H6         51.1402   -2.0806   52.6334 H           1 MOL       0.0672
     28 H7         51.6411    0.6357   51.1608 H           1 MOL       0.0700
     29 H8         54.8041   -2.1426   51.4192 H           1 MOL       0.0700
     30 H9         53.1267    2.3889   51.8261 H           1 MOL       0.0838
     31 H10        56.2810   -0.4034   52.1071 H           1 MOL       0.0838
     32 H11        54.2429    3.8993   50.8608 H           1 MOL       0.0312
     33 H12        54.6003    5.4365   51.6725 H           1 MOL       0.0312
     34 H13        56.1698    5.5541   53.5930 H           1 MOL       0.0312
     35 H14        56.7196    4.1326   54.4541 H           1 MOL       0.0312
     36 H15        56.5481    5.6369   50.4362 H           1 MOL       0.0814
     37 H16        56.1225    4.1701   49.5783 H           1 MOL       0.0814
     38 H17        58.5483    3.8951   53.0466 H           1 MOL       0.0814
     39 H18        58.1630    5.4822   52.4078 H           1 MOL       0.0814
     40 H19        57.9572    1.8526   51.7275 H           1 MOL       0.0725
     41 H20        56.8042    1.9958   50.4354 H           1 MOL       0.0725
     42 H21        54.4882    3.6519   53.4395 H           1 MOL       0.0225
     43 H22        58.2673    3.9410   50.6248 H           1 MOL       0.2025
@<TRIPOS>BOND
     1    21     1   1
     2     3     2  ar
     3     4     2  ar
     4     5     3  ar
     5     6     4  ar
     6    16     5  ar
     7    16     6  ar
     8     9     7  ar
     9     7    17  ar
    10    10     8  ar
    11     8    17  ar
    12    18     9  ar
    13    18    10  ar
    14    13    11   1
    15    11    19   1
    16    14    12   1
    17    12    19   1
    18    20    13   1
    19    20    14   1
    20    15    20   1
    21    21    15   1
    22    17    16   1
    23    18    21   1
    24    19    21   1
    25     1    22   1
    26     2    23   1
    27     3    24   1
    28     4    25   1
    29     5    26   1
    30     6    27   1
    31     7    28   1
    32     8    29   1
    33     9    30   1
    34    10    31   1
    35    11    32   1
    36    11    33   1
    37    12    34   1
    38    12    35   1
    39    13    36   1
    40    13    37   1
    41    14    38   1
    42    14    39   1
    43    15    40   1
    44    15    41   1
    45    19    42   1
    46    20    43   1
@<TRIPOS>SUBSTRUCTURE
     1  MOL      2

