@<TRIPOS>MOLECULE
3acw_ligand_058
    43    46
SMALL
GAST_HUCK
****
This file was generated by PARSER (from files_GN.cpp)

@<TRIPOS>ATOM
      1 OAA        57.1892    3.7369   53.9076 O.3         1 MOL      -0.4236
      2 CAB        57.8018   12.8586   52.7468 C.ar        1 MOL      -0.0563
      3 CAC        56.6926   12.4142   53.4918 C.ar        1 MOL      -0.0552
      4 CAD        58.6446   11.9225   52.1216 C.ar        1 MOL      -0.0552
      5 CAE        56.4058   11.0397   53.5785 C.ar        1 MOL      -0.0454
      6 CAF        58.3698   10.5497   52.2200 C.ar        1 MOL      -0.0454
      7 CAG        57.9111    7.7933   53.5272 C.ar        1 MOL      -0.0261
      8 CAH        55.7075    8.1935   52.6040 C.ar        1 MOL      -0.0261
      9 CAI        57.6379    6.4210   53.5891 C.ar        1 MOL      -0.0390
     10 CAJ        55.4358    6.8174   52.6748 C.ar        1 MOL      -0.0390
     11 CAK        54.5538    4.0162   51.1475 C.3         1 MOL      -0.0152
     12 CAL        55.8513    2.1131   52.0749 C.3         1 MOL      -0.0152
     13 CAM        53.3828    3.6942   52.1395 C.3         1 MOL      -0.0331
     14 CAN        54.6750    1.8111   53.0684 C.3         1 MOL      -0.0331
     15 CAO        54.8147    4.0475   54.1082 C.3         1 MOL      -0.0283
     16 CAP        57.2400   10.0904   52.9419 C.ar        1 MOL       0.0022
     17 CAQ        56.9557    8.7019   53.0243 C.ar        1 MOL       0.0101
     18 CAR        56.3957    5.8786   53.1479 C.ar        1 MOL      -0.0233
     19 CAS        55.9212    3.6654   51.8337 C.3         1 MOL      -0.0252
     20 NAT        53.9177    3.0694   53.3979 N.4         1 MOL       0.2304
     21 CAU        56.0930    4.3933   53.2371 C.3         1 MOL       0.0922
     22 H1         57.9456    3.7883   53.2828 H           1 MOL       0.1945
     23 H2         58.0088   13.8553   52.6823 H           1 MOL       0.0663
     24 H3         56.0923   13.0908   53.9647 H           1 MOL       0.0633
     25 H4         59.4578   12.2409   51.5900 H           1 MOL       0.0633
     26 H5         55.5933   10.7343   54.1257 H           1 MOL       0.0672
     27 H6         58.9942    9.8829   51.7531 H           1 MOL       0.0672
     28 H7         58.8125    8.1415   53.8746 H           1 MOL       0.0700
     29 H8         54.9804    8.8200   52.2440 H           1 MOL       0.0700
     30 H9         58.3700    5.8216   53.9718 H           1 MOL       0.0838
     31 H10        54.5006    6.5069   52.4083 H           1 MOL       0.0838
     32 H11        54.5267    5.0554   50.8190 H           1 MOL       0.0312
     33 H12        54.4326    3.4185   50.2392 H           1 MOL       0.0312
     34 H13        55.6898    1.5871   51.1275 H           1 MOL       0.0312
     35 H14        56.7958    1.7379   52.4805 H           1 MOL       0.0312
     36 H15        52.6751    3.0095   51.6684 H           1 MOL       0.0814
     37 H16        52.8287    4.6053   52.3832 H           1 MOL       0.0814
     38 H17        55.0715    1.3671   53.9871 H           1 MOL       0.0814
     39 H18        53.9950    1.0767   52.6271 H           1 MOL       0.0814
     40 H19        55.1011    3.6279   55.0781 H           1 MOL       0.0725
     41 H20        54.2364    4.9438   54.3496 H           1 MOL       0.0725
     42 H21        56.7527    3.9091   51.1643 H           1 MOL       0.0225
     43 H22        53.1368    2.8253   54.0117 H           1 MOL       0.2025
@<TRIPOS>BOND
     1    21     1   1
     2     3     2  ar
     3     4     2  ar
     4     5     3  ar
     5     6     4  ar
     6    16     5  ar
     7    16     6  ar
     8     9     7  ar
     9     7    17  ar
    10    10     8  ar
    11     8    17  ar
    12    18     9  ar
    13    18    10  ar
    14    13    11   1
    15    11    19   1
    16    14    12   1
    17    12    19   1
    18    20    13   1
    19    20    14   1
    20    15    20   1
    21    21    15   1
    22    17    16   1
    23    18    21   1
    24    19    21   1
    25     1    22   1
    26     2    23   1
    27     3    24   1
    28     4    25   1
    29     5    26   1
    30     6    27   1
    31     7    28   1
    32     8    29   1
    33     9    30   1
    34    10    31   1
    35    11    32   1
    36    11    33   1
    37    12    34   1
    38    12    35   1
    39    13    36   1
    40    13    37   1
    41    14    38   1
    42    14    39   1
    43    15    40   1
    44    15    41   1
    45    19    42   1
    46    20    43   1
@<TRIPOS>SUBSTRUCTURE
     1  MOL      2

