@<TRIPOS>MOLECULE
3acw_ligand_017
    43    46
SMALL
GAST_HUCK
****
This file was generated by PARSER (from files_GN.cpp)

@<TRIPOS>ATOM
      1 OAA        56.7322   18.2096   55.4105 O.3         1 MOL      -0.4236
      2 CAB        54.3473    9.6663   53.8692 C.ar        1 MOL      -0.0563
      3 CAC        53.5112   10.6926   54.3503 C.ar        1 MOL      -0.0552
      4 CAD        55.6472    9.9694   53.4262 C.ar        1 MOL      -0.0552
      5 CAE        53.9722   12.0209   54.3758 C.ar        1 MOL      -0.0454
      6 CAF        56.1143   11.2954   53.4618 C.ar        1 MOL      -0.0454
      7 CAG        56.7538   14.1104   54.7806 C.ar        1 MOL      -0.0261
      8 CAH        55.0956   14.6221   53.0818 C.ar        1 MOL      -0.0261
      9 CAI        57.1470   15.4593   54.7898 C.ar        1 MOL      -0.0390
     10 CAJ        55.4785   15.9733   53.1152 C.ar        1 MOL      -0.0390
     11 CAK        56.6787   18.7468   51.6051 C.3         1 MOL      -0.0152
     12 CAL        56.7440   20.3805   53.5106 C.3         1 MOL      -0.0152
     13 CAM        58.2250   18.9115   51.4735 C.3         1 MOL      -0.0331
     14 CAN        58.3015   20.4584   53.3791 C.3         1 MOL      -0.0331
     15 CAO        58.5484   18.0299   53.7541 C.3         1 MOL      -0.0283
     16 CAP        55.2781   12.3355   53.9323 C.ar        1 MOL       0.0022
     17 CAQ        55.7203   13.6768   53.9210 C.ar        1 MOL       0.0101
     18 CAR        56.5407   16.4298   53.9451 C.ar        1 MOL      -0.0233
     19 CAS        56.2638   18.9374   53.1119 C.3         1 MOL      -0.0252
     20 NAT        58.8418   19.1717   52.8194 N.4         1 MOL       0.2304
     21 CAU        56.9959   17.8719   54.0345 C.3         1 MOL       0.0922
     22 H1         57.3459   18.9362   55.6497 H           1 MOL       0.1945
     23 H2         54.0122    8.7011   53.8442 H           1 MOL       0.0663
     24 H3         52.5676   10.4755   54.6756 H           1 MOL       0.0633
     25 H4         56.2548    9.2232   53.0771 H           1 MOL       0.0633
     26 H5         53.3509   12.7558   54.7287 H           1 MOL       0.0672
     27 H6         57.0593   11.5036   53.1266 H           1 MOL       0.0672
     28 H7         57.1917   13.4543   55.4329 H           1 MOL       0.0700
     29 H8         54.3382   14.3304   52.4504 H           1 MOL       0.0700
     30 H9         57.8834   15.7417   55.4430 H           1 MOL       0.0838
     31 H10        54.9440   16.6188   52.5344 H           1 MOL       0.0838
     32 H11        56.4001   17.7623   51.2261 H           1 MOL       0.0312
     33 H12        56.1661   19.4920   50.9876 H           1 MOL       0.0312
     34 H13        56.2826   21.1219   52.8561 H           1 MOL       0.0312
     35 H14        56.4418   20.6335   54.5288 H           1 MOL       0.0312
     36 H15        58.4455   19.7342   50.7879 H           1 MOL       0.0814
     37 H16        58.6599   18.0107   51.0337 H           1 MOL       0.0814
     38 H17        58.7586   20.6549   54.3522 H           1 MOL       0.0814
     39 H18        58.5870   21.2869   52.7247 H           1 MOL       0.0814
     40 H19        59.0949   18.1937   54.6871 H           1 MOL       0.0725
     41 H20        58.9644   17.1134   53.3273 H           1 MOL       0.0725
     42 H21        55.1775   18.8818   53.2320 H           1 MOL       0.0225
     43 H22        59.8554   19.2436   52.7100 H           1 MOL       0.2025
@<TRIPOS>BOND
     1    21     1   1
     2     3     2  ar
     3     4     2  ar
     4     5     3  ar
     5     6     4  ar
     6    16     5  ar
     7    16     6  ar
     8     9     7  ar
     9     7    17  ar
    10    10     8  ar
    11     8    17  ar
    12    18     9  ar
    13    18    10  ar
    14    13    11   1
    15    11    19   1
    16    14    12   1
    17    12    19   1
    18    20    13   1
    19    20    14   1
    20    15    20   1
    21    21    15   1
    22    17    16   1
    23    18    21   1
    24    19    21   1
    25     1    22   1
    26     2    23   1
    27     3    24   1
    28     4    25   1
    29     5    26   1
    30     6    27   1
    31     7    28   1
    32     8    29   1
    33     9    30   1
    34    10    31   1
    35    11    32   1
    36    11    33   1
    37    12    34   1
    38    12    35   1
    39    13    36   1
    40    13    37   1
    41    14    38   1
    42    14    39   1
    43    15    40   1
    44    15    41   1
    45    19    42   1
    46    20    43   1
@<TRIPOS>SUBSTRUCTURE
     1  MOL      2

