@<TRIPOS>MOLECULE
3acw_ligand_041
    43    46
SMALL
GAST_HUCK
****
This file was generated by PARSER (from files_GN.cpp)

@<TRIPOS>ATOM
      1 OAA        57.8025    3.7297   51.8714 O.3         1 MOL      -0.4236
      2 CAB        53.0694   11.4077   51.5169 C.ar        1 MOL      -0.0563
      3 CAC        54.3102   11.1979   50.8887 C.ar        1 MOL      -0.0552
      4 CAD        52.3903   10.3274   52.1112 C.ar        1 MOL      -0.0552
      5 CAE        54.8693    9.9063   50.8451 C.ar        1 MOL      -0.0454
      6 CAF        52.9500    9.0363   52.0766 C.ar        1 MOL      -0.0454
      7 CAG        55.1014    6.8454   52.5617 C.ar        1 MOL      -0.0261
      8 CAH        54.9777    6.8857   50.1402 C.ar        1 MOL      -0.0261
      9 CAI        55.6725    5.5632   52.5069 C.ar        1 MOL      -0.0390
     10 CAJ        55.5474    5.5993   50.0895 C.ar        1 MOL      -0.0390
     11 CAK        55.3384    2.2763   49.3413 C.3         1 MOL      -0.0152
     12 CAL        57.5640    1.4604   50.1791 C.3         1 MOL      -0.0152
     13 CAM        54.6515    1.3135   50.3660 C.3         1 MOL      -0.0331
     14 CAN        56.8275    0.5778   51.2408 C.3         1 MOL      -0.0331
     15 CAO        55.6885    2.5268   52.2324 C.3         1 MOL      -0.0283
     16 CAP        54.1898    8.8156   51.4341 C.ar        1 MOL       0.0022
     17 CAQ        54.7431    7.5169   51.3784 C.ar        1 MOL       0.0101
     18 CAR        55.8898    4.8951   51.2718 C.ar        1 MOL      -0.0233
     19 CAS        56.7173    2.7571   49.9181 C.3         1 MOL      -0.0252
     20 NAT        55.4983    1.1764   51.5987 N.4         1 MOL       0.2304
     21 CAU        56.5024    3.5150   51.2948 C.3         1 MOL       0.0922
     22 H1         58.4215    3.9166   51.1285 H           1 MOL       0.1945
     23 H2         52.6612   12.3442   51.5416 H           1 MOL       0.0663
     24 H3         54.8089   11.9828   50.4648 H           1 MOL       0.0633
     25 H4         51.4879   10.4774   52.5656 H           1 MOL       0.0633
     26 H5         55.7778    9.7730   50.3921 H           1 MOL       0.0672
     27 H6         52.4403    8.2617   52.5113 H           1 MOL       0.0672
     28 H7         54.9673    7.2909   53.4694 H           1 MOL       0.0700
     29 H8         54.7306    7.3569   49.2690 H           1 MOL       0.0700
     30 H9         55.9347    5.1159   53.3883 H           1 MOL       0.0838
     31 H10        55.7170    5.1990   49.1683 H           1 MOL       0.0838
     32 H11        54.6754    3.1157   49.1387 H           1 MOL       0.0312
     33 H12        55.4932    1.7620   48.3893 H           1 MOL       0.0312
     34 H13        57.6905    0.9019   49.2477 H           1 MOL       0.0312
     35 H14        58.5652    1.7150   50.5351 H           1 MOL       0.0312
     36 H15        53.6624    1.6954   50.6390 H           1 MOL       0.0814
     37 H16        54.4939    0.3283   49.9116 H           1 MOL       0.0814
     38 H17        57.4399    0.4881   52.1422 H           1 MOL       0.0814
     39 H18        56.6828   -0.4335   50.8481 H           1 MOL       0.0814
     40 H19        56.1963    2.4034   53.1946 H           1 MOL       0.0725
     41 H20        54.6968    2.9271   52.4642 H           1 MOL       0.0725
     42 H21        57.2397    3.3905   49.1945 H           1 MOL       0.0225
     43 H22        55.0235    0.5600   52.2620 H           1 MOL       0.2025
@<TRIPOS>BOND
     1    21     1   1
     2     3     2  ar
     3     4     2  ar
     4     5     3  ar
     5     6     4  ar
     6    16     5  ar
     7    16     6  ar
     8     9     7  ar
     9     7    17  ar
    10    10     8  ar
    11     8    17  ar
    12    18     9  ar
    13    18    10  ar
    14    13    11   1
    15    11    19   1
    16    14    12   1
    17    12    19   1
    18    20    13   1
    19    20    14   1
    20    15    20   1
    21    21    15   1
    22    17    16   1
    23    18    21   1
    24    19    21   1
    25     1    22   1
    26     2    23   1
    27     3    24   1
    28     4    25   1
    29     5    26   1
    30     6    27   1
    31     7    28   1
    32     8    29   1
    33     9    30   1
    34    10    31   1
    35    11    32   1
    36    11    33   1
    37    12    34   1
    38    12    35   1
    39    13    36   1
    40    13    37   1
    41    14    38   1
    42    14    39   1
    43    15    40   1
    44    15    41   1
    45    19    42   1
    46    20    43   1
@<TRIPOS>SUBSTRUCTURE
     1  MOL      2

