@<TRIPOS>MOLECULE
3acw_ligand_004
    43    46
SMALL
GAST_HUCK
****
This file was generated by PARSER (from files_GN.cpp)

@<TRIPOS>ATOM
      1 OAA        61.8271    6.4117   58.8660 O.3         1 MOL      -0.4236
      2 CAB        55.4222    7.0594   52.2906 C.ar        1 MOL      -0.0563
      3 CAC        56.1382    8.1949   52.6929 C.ar        1 MOL      -0.0552
      4 CAD        55.8647    5.7939   52.7006 C.ar        1 MOL      -0.0552
      5 CAE        57.2650    8.0608   53.5203 C.ar        1 MOL      -0.0454
      6 CAF        57.0075    5.6682   53.5148 C.ar        1 MOL      -0.0454
      7 CAG        59.2683    5.4348   55.5050 C.ar        1 MOL      -0.0261
      8 CAH        59.6941    7.7756   55.2514 C.ar        1 MOL      -0.0261
      9 CAI        60.3972    5.3217   56.3428 C.ar        1 MOL      -0.0390
     10 CAJ        60.8108    7.6688   56.0994 C.ar        1 MOL      -0.0390
     11 CAK        64.3312    7.1972   56.1062 C.3         1 MOL      -0.0152
     12 CAL        64.5504    7.3198   58.6179 C.3         1 MOL      -0.0152
     13 CAM        65.0682    5.8155   56.1794 C.3         1 MOL      -0.0331
     14 CAN        65.1720    5.8874   58.6351 C.3         1 MOL      -0.0331
     15 CAO        63.2039    4.9205   57.4966 C.3         1 MOL      -0.0283
     16 CAP        57.7419    6.7961   53.9896 C.ar        1 MOL       0.0022
     17 CAQ        58.8880    6.6630   54.8898 C.ar        1 MOL       0.0101
     18 CAR        61.2343    6.4279   56.6248 C.ar        1 MOL      -0.0233
     19 CAS        63.5309    7.4284   57.4343 C.3         1 MOL      -0.0252
     20 NAT        64.6977    5.0995   57.4463 N.4         1 MOL       0.2304
     21 CAU        62.4200    6.3010   57.5674 C.3         1 MOL       0.0922
     22 H1         61.2195    5.6488   58.9497 H           1 MOL       0.1945
     23 H2         54.5996    7.1555   51.6931 H           1 MOL       0.0663
     24 H3         55.8363    9.1203   52.3799 H           1 MOL       0.0633
     25 H4         55.3493    4.9603   52.3969 H           1 MOL       0.0633
     26 H5         57.7166    8.9311   53.7790 H           1 MOL       0.0672
     27 H6         57.2857    4.7155   53.7472 H           1 MOL       0.0672
     28 H7         58.7254    4.5895   55.3759 H           1 MOL       0.0700
     29 H8         59.4999    8.7119   54.9116 H           1 MOL       0.0700
     30 H9         60.5963    4.4134   56.7561 H           1 MOL       0.0838
     31 H10        61.2900    8.5365   56.3253 H           1 MOL       0.0838
     32 H11        63.6482    7.2117   55.2536 H           1 MOL       0.0312
     33 H12        65.0603    7.9977   55.9519 H           1 MOL       0.0312
     34 H13        65.3319    8.0741   58.4951 H           1 MOL       0.0312
     35 H14        64.0457    7.5310   59.5693 H           1 MOL       0.0312
     36 H15        66.1507    5.9604   56.1391 H           1 MOL       0.0814
     37 H16        64.8052    5.1940   55.3167 H           1 MOL       0.0814
     38 H17        64.8914    5.3711   59.5570 H           1 MOL       0.0814
     39 H18        66.2609    5.9577   58.6243 H           1 MOL       0.0814
     40 H19        62.9564    4.2872   58.3581 H           1 MOL       0.0725
     41 H20        62.9257    4.3468   56.6114 H           1 MOL       0.0725
     42 H21        63.1215    8.4352   57.4648 H           1 MOL       0.0225
     43 H22        65.1482    4.1814   57.4563 H           1 MOL       0.2025
@<TRIPOS>BOND
     1    21     1   1
     2     3     2  ar
     3     4     2  ar
     4     5     3  ar
     5     6     4  ar
     6    16     5  ar
     7    16     6  ar
     8     9     7  ar
     9     7    17  ar
    10    10     8  ar
    11     8    17  ar
    12    18     9  ar
    13    18    10  ar
    14    13    11   1
    15    11    19   1
    16    14    12   1
    17    12    19   1
    18    20    13   1
    19    20    14   1
    20    15    20   1
    21    21    15   1
    22    17    16   1
    23    18    21   1
    24    19    21   1
    25     1    22   1
    26     2    23   1
    27     3    24   1
    28     4    25   1
    29     5    26   1
    30     6    27   1
    31     7    28   1
    32     8    29   1
    33     9    30   1
    34    10    31   1
    35    11    32   1
    36    11    33   1
    37    12    34   1
    38    12    35   1
    39    13    36   1
    40    13    37   1
    41    14    38   1
    42    14    39   1
    43    15    40   1
    44    15    41   1
    45    19    42   1
    46    20    43   1
@<TRIPOS>SUBSTRUCTURE
     1  MOL      2

