@<TRIPOS>MOLECULE
3acw_ligand_042
    43    46
SMALL
GAST_HUCK
****
This file was generated by PARSER (from files_GN.cpp)

@<TRIPOS>ATOM
      1 OAA        59.5219   18.9658   53.1137 O.3         1 MOL      -0.4236
      2 CAB        54.4504   11.4908   54.6515 C.ar        1 MOL      -0.0563
      3 CAC        53.7816   12.6662   55.0438 C.ar        1 MOL      -0.0552
      4 CAD        55.7191   11.5724   54.0527 C.ar        1 MOL      -0.0552
      5 CAE        54.3761   13.9203   54.8202 C.ar        1 MOL      -0.0454
      6 CAF        56.3197   12.8284   53.8388 C.ar        1 MOL      -0.0454
      7 CAG        57.4900   15.6299   54.5128 C.ar        1 MOL      -0.0261
      8 CAH        55.5636   16.2403   53.1785 C.ar        1 MOL      -0.0261
      9 CAI        58.0611   16.8935   54.2499 C.ar        1 MOL      -0.0390
     10 CAJ        56.1421   17.4917   52.9160 C.ar        1 MOL      -0.0390
     11 CAK        56.2367   20.7838   53.7937 C.3         1 MOL      -0.0152
     12 CAL        58.6020   21.5951   53.6985 C.3         1 MOL      -0.0152
     13 CAM        56.0607   21.2217   52.3018 C.3         1 MOL      -0.0331
     14 CAN        58.3816   22.0048   52.2024 C.3         1 MOL      -0.0331
     15 CAO        57.8354   19.6829   51.5672 C.3         1 MOL      -0.0283
     16 CAP        55.6525   14.0176   54.2112 C.ar        1 MOL       0.0022
     17 CAQ        56.2373   15.2863   53.9688 C.ar        1 MOL       0.0101
     18 CAR        57.4280   17.8449   53.4036 C.ar        1 MOL      -0.0233
     19 CAS        57.7179   20.3384   54.0298 C.3         1 MOL      -0.0252
     20 NAT        57.3613   21.1083   51.5624 N.4         1 MOL       0.2304
     21 CAU        58.0962   19.1606   53.0447 C.3         1 MOL       0.0922
     22 H1         59.7420   18.8845   54.0644 H           1 MOL       0.1945
     23 H2         54.0180   10.5793   54.8163 H           1 MOL       0.0663
     24 H3         52.8698   12.6061   55.5036 H           1 MOL       0.0633
     25 H4         56.2068   10.7186   53.7731 H           1 MOL       0.0633
     26 H5         53.8817   14.7629   55.1258 H           1 MOL       0.0672
     27 H6         57.2400   12.8671   53.3918 H           1 MOL       0.0672
     28 H7         57.9937   14.9707   55.1145 H           1 MOL       0.0700
     29 H8         54.6568   16.0225   52.7658 H           1 MOL       0.0700
     30 H9         58.9600   17.0982   54.6934 H           1 MOL       0.0838
     31 H10        55.5991   18.1396   52.3491 H           1 MOL       0.0838
     32 H11        55.5507   19.9712   54.0344 H           1 MOL       0.0312
     33 H12        55.9822   21.6158   54.4572 H           1 MOL       0.0312
     34 H13        58.3340   22.4292   54.3567 H           1 MOL       0.0312
     35 H14        59.6595   21.3820   53.8796 H           1 MOL       0.0312
     36 H15        55.6929   22.2503   52.2549 H           1 MOL       0.0814
     37 H16        55.3073   20.5994   51.8172 H           1 MOL       0.0814
     38 H17        59.3216   21.9498   51.6507 H           1 MOL       0.0814
     39 H18        58.0477   23.0447   52.1413 H           1 MOL       0.0814
     40 H19        58.7355   19.6162   50.9578 H           1 MOL       0.0725
     41 H20        57.1154   19.0790   51.0201 H           1 MOL       0.0725
     42 H21        57.8621   20.0415   55.0709 H           1 MOL       0.0225
     43 H22        57.2189   21.3851   50.5911 H           1 MOL       0.2025
@<TRIPOS>BOND
     1    21     1   1
     2     3     2  ar
     3     4     2  ar
     4     5     3  ar
     5     6     4  ar
     6    16     5  ar
     7    16     6  ar
     8     9     7  ar
     9     7    17  ar
    10    10     8  ar
    11     8    17  ar
    12    18     9  ar
    13    18    10  ar
    14    13    11   1
    15    11    19   1
    16    14    12   1
    17    12    19   1
    18    20    13   1
    19    20    14   1
    20    15    20   1
    21    21    15   1
    22    17    16   1
    23    18    21   1
    24    19    21   1
    25     1    22   1
    26     2    23   1
    27     3    24   1
    28     4    25   1
    29     5    26   1
    30     6    27   1
    31     7    28   1
    32     8    29   1
    33     9    30   1
    34    10    31   1
    35    11    32   1
    36    11    33   1
    37    12    34   1
    38    12    35   1
    39    13    36   1
    40    13    37   1
    41    14    38   1
    42    14    39   1
    43    15    40   1
    44    15    41   1
    45    19    42   1
    46    20    43   1
@<TRIPOS>SUBSTRUCTURE
     1  MOL      2

