@<TRIPOS>MOLECULE
3acw_ligand_013
    43    46
SMALL
GAST_HUCK
****
This file was generated by PARSER (from files_GN.cpp)

@<TRIPOS>ATOM
      1 OAA        54.6228   11.9001   53.8037 O.3         1 MOL      -0.4236
      2 CAB        56.8124   20.1028   56.8325 C.ar        1 MOL      -0.0563
      3 CAC        57.1667   19.9797   55.4768 C.ar        1 MOL      -0.0552
      4 CAD        56.4136   18.9655   57.5581 C.ar        1 MOL      -0.0552
      5 CAE        57.0871   18.7271   54.8358 C.ar        1 MOL      -0.0454
      6 CAF        56.3385   17.7151   56.9195 C.ar        1 MOL      -0.0454
      7 CAG        57.0258   15.1403   55.4111 C.ar        1 MOL      -0.0261
      8 CAH        55.6301   16.2144   53.7519 C.ar        1 MOL      -0.0261
      9 CAI        56.7644   13.8971   54.8098 C.ar        1 MOL      -0.0390
     10 CAJ        55.3808   14.9673   53.1502 C.ar        1 MOL      -0.0390
     11 CAK        58.0656   11.8086   52.1676 C.3         1 MOL      -0.0152
     12 CAL        56.4622    9.9383   52.7539 C.3         1 MOL      -0.0152
     13 CAM        57.5237   11.7199   50.7018 C.3         1 MOL      -0.0331
     14 CAN        55.8888    9.9703   51.3020 C.3         1 MOL      -0.0331
     15 CAO        55.2828   12.3534   51.4902 C.3         1 MOL      -0.0283
     16 CAP        56.6496   17.5777   55.5441 C.ar        1 MOL       0.0022
     17 CAQ        56.4685   16.3279   54.8872 C.ar        1 MOL       0.0101
     18 CAR        55.9836   13.7709   53.6299 C.ar        1 MOL      -0.0233
     19 CAS        56.9308   11.3799   53.1603 C.3         1 MOL      -0.0252
     20 NAT        56.0664   11.3356   50.7045 N.4         1 MOL       0.2304
     21 CAU        55.7211   12.4019   53.0250 C.3         1 MOL       0.0922
     22 H1         54.9521   11.8393   54.7291 H           1 MOL       0.1945
     23 H2         56.8631   21.0049   57.2955 H           1 MOL       0.0663
     24 H3         57.4839   20.7985   54.9560 H           1 MOL       0.0633
     25 H4         56.1699   19.0518   58.5448 H           1 MOL       0.0633
     26 H5         57.3481   18.6593   53.8477 H           1 MOL       0.0672
     27 H6         56.0101   16.9096   57.4635 H           1 MOL       0.0672
     28 H7         57.6140   15.1628   56.2461 H           1 MOL       0.0700
     29 H8         55.1554   17.0424   53.3784 H           1 MOL       0.0700
     30 H9         57.1394   13.0686   55.2800 H           1 MOL       0.0838
     31 H10        54.7055   14.9484   52.3846 H           1 MOL       0.0838
     32 H11        58.3866   12.8307   52.3890 H           1 MOL       0.0312
     33 H12        58.9362   11.1601   52.2903 H           1 MOL       0.0312
     34 H13        57.3049    9.2437   52.8086 H           1 MOL       0.0312
     35 H14        55.6981    9.5755   53.4488 H           1 MOL       0.0312
     36 H15        58.1008   10.9845   50.1283 H           1 MOL       0.0814
     37 H16        57.6495   12.6852   50.1966 H           1 MOL       0.0814
     38 H17        54.8262    9.7053   51.3034 H           1 MOL       0.0814
     39 H18        56.3974    9.2335   50.6739 H           1 MOL       0.0814
     40 H19        54.2161   12.1360   51.4002 H           1 MOL       0.0725
     41 H20        55.4478   13.2946   50.9738 H           1 MOL       0.0725
     42 H21        57.3288   11.3316   54.1748 H           1 MOL       0.0225
     43 H22        55.7297   11.2929   49.7410 H           1 MOL       0.2025
@<TRIPOS>BOND
     1    21     1   1
     2     3     2  ar
     3     4     2  ar
     4     5     3  ar
     5     6     4  ar
     6    16     5  ar
     7    16     6  ar
     8     9     7  ar
     9     7    17  ar
    10    10     8  ar
    11     8    17  ar
    12    18     9  ar
    13    18    10  ar
    14    13    11   1
    15    11    19   1
    16    14    12   1
    17    12    19   1
    18    20    13   1
    19    20    14   1
    20    15    20   1
    21    21    15   1
    22    17    16   1
    23    18    21   1
    24    19    21   1
    25     1    22   1
    26     2    23   1
    27     3    24   1
    28     4    25   1
    29     5    26   1
    30     6    27   1
    31     7    28   1
    32     8    29   1
    33     9    30   1
    34    10    31   1
    35    11    32   1
    36    11    33   1
    37    12    34   1
    38    12    35   1
    39    13    36   1
    40    13    37   1
    41    14    38   1
    42    14    39   1
    43    15    40   1
    44    15    41   1
    45    19    42   1
    46    20    43   1
@<TRIPOS>SUBSTRUCTURE
     1  MOL      2

