@<TRIPOS>MOLECULE
3acw_ligand_010
    43    46
SMALL
GAST_HUCK
****
This file was generated by PARSER (from files_GN.cpp)

@<TRIPOS>ATOM
      1 OAA        57.8108   14.0593   50.4846 O.3         1 MOL      -0.4236
      2 CAB        56.6717   22.7519   52.6568 C.ar        1 MOL      -0.0563
      3 CAC        55.6297   21.9651   53.1836 C.ar        1 MOL      -0.0552
      4 CAD        57.7269   22.1429   51.9569 C.ar        1 MOL      -0.0552
      5 CAE        55.6454   20.5711   53.0131 C.ar        1 MOL      -0.0454
      6 CAF        57.7468   20.7447   51.7879 C.ar        1 MOL      -0.0454
      7 CAG        57.5171   17.7614   53.0380 C.ar        1 MOL      -0.0261
      8 CAH        56.0677   17.9047   51.1068 C.ar        1 MOL      -0.0261
      9 CAI        57.5938   16.3682   52.8740 C.ar        1 MOL      -0.0390
     10 CAJ        56.1338   16.5056   50.9649 C.ar        1 MOL      -0.0390
     11 CAK        54.6444   13.4582   52.5169 C.3         1 MOL      -0.0152
     12 CAL        55.7720   12.0185   50.7846 C.3         1 MOL      -0.0152
     13 CAM        55.3502   12.6010   53.6188 C.3         1 MOL      -0.0331
     14 CAN        56.4996   11.2274   51.9176 C.3         1 MOL      -0.0331
     15 CAO        57.5601   13.2626   52.7712 C.3         1 MOL      -0.0283
     16 CAP        56.7041   19.9488   52.3118 C.ar        1 MOL       0.0022
     17 CAQ        56.7439   18.5457   52.1624 C.ar        1 MOL       0.0101
     18 CAR        56.8608   15.6777   51.8613 C.ar        1 MOL      -0.0233
     19 CAS        55.5514   13.4999   51.2450 C.3         1 MOL      -0.0252
     20 NAT        56.6804   12.0972   53.1237 N.4         1 MOL       0.2304
     21 CAU        56.9409   14.1765   51.6225 C.3         1 MOL       0.0922
     22 H1         57.3615   14.4854   49.7217 H           1 MOL       0.1945
     23 H2         56.6536   23.7668   52.7721 H           1 MOL       0.0663
     24 H3         54.8643   22.4112   53.6918 H           1 MOL       0.0633
     25 H4         58.4801   22.7122   51.5699 H           1 MOL       0.0633
     26 H5         54.8843   20.0087   53.4071 H           1 MOL       0.0672
     27 H6         58.5239   20.3128   51.2826 H           1 MOL       0.0672
     28 H7         58.0543   18.2035   53.7915 H           1 MOL       0.0700
     29 H8         55.5521   18.4526   50.4126 H           1 MOL       0.0700
     30 H9         58.2429   15.8792   53.4870 H           1 MOL       0.0838
     31 H10        55.6631   16.1080   50.1508 H           1 MOL       0.0838
     32 H11        54.4626   14.4714   52.8814 H           1 MOL       0.0312
     33 H12        53.6713   13.0234   52.2622 H           1 MOL       0.0312
     34 H13        54.8048   11.5530   50.5691 H           1 MOL       0.0312
     35 H14        56.3560   11.9865   49.8635 H           1 MOL       0.0312
     36 H15        54.7170   11.7511   53.8941 H           1 MOL       0.0814
     37 H16        55.4912   13.1982   54.5232 H           1 MOL       0.0814
     38 H17        57.4738   10.8747   51.5637 H           1 MOL       0.0814
     39 H18        55.9230   10.3375   52.1900 H           1 MOL       0.0814
     40 H19        58.5437   12.8918   52.4784 H           1 MOL       0.0725
     41 H20        57.7226   13.7919   53.7089 H           1 MOL       0.0725
     42 H21        55.0269   14.0153   50.4380 H           1 MOL       0.0225
     43 H22        57.1284   11.5549   53.8682 H           1 MOL       0.2025
@<TRIPOS>BOND
     1    21     1   1
     2     3     2  ar
     3     4     2  ar
     4     5     3  ar
     5     6     4  ar
     6    16     5  ar
     7    16     6  ar
     8     9     7  ar
     9     7    17  ar
    10    10     8  ar
    11     8    17  ar
    12    18     9  ar
    13    18    10  ar
    14    13    11   1
    15    11    19   1
    16    14    12   1
    17    12    19   1
    18    20    13   1
    19    20    14   1
    20    15    20   1
    21    21    15   1
    22    17    16   1
    23    18    21   1
    24    19    21   1
    25     1    22   1
    26     2    23   1
    27     3    24   1
    28     4    25   1
    29     5    26   1
    30     6    27   1
    31     7    28   1
    32     8    29   1
    33     9    30   1
    34    10    31   1
    35    11    32   1
    36    11    33   1
    37    12    34   1
    38    12    35   1
    39    13    36   1
    40    13    37   1
    41    14    38   1
    42    14    39   1
    43    15    40   1
    44    15    41   1
    45    19    42   1
    46    20    43   1
@<TRIPOS>SUBSTRUCTURE
     1  MOL      2

