@<TRIPOS>MOLECULE
3acw_ligand_014
    43    46
SMALL
GAST_HUCK
****
This file was generated by PARSER (from files_GN.cpp)

@<TRIPOS>ATOM
      1 OAA        55.0253   10.0984   51.5013 O.3         1 MOL      -0.4236
      2 CAB        61.2683    6.0631   57.0297 C.ar        1 MOL      -0.0563
      3 CAC        61.5537    7.4160   56.7915 C.ar        1 MOL      -0.0552
      4 CAD        60.0927    5.4881   56.5151 C.ar        1 MOL      -0.0552
      5 CAE        60.6629    8.1971   56.0276 C.ar        1 MOL      -0.0454
      6 CAF        59.1955    6.2775   55.7676 C.ar        1 MOL      -0.0454
      7 CAG        58.2981    9.7954   55.0871 C.ar        1 MOL      -0.0261
      8 CAH        57.8453    7.9227   53.6390 C.ar        1 MOL      -0.0261
      9 CAI        57.4027   10.5847   54.3456 C.ar        1 MOL      -0.0390
     10 CAJ        56.9493    8.7187   52.9007 C.ar        1 MOL      -0.0390
     11 CAK        56.9786   13.2531   52.4222 C.3         1 MOL      -0.0152
     12 CAL        55.3603   12.7277   50.6052 C.3         1 MOL      -0.0152
     13 CAM        55.7989   13.8189   53.2837 C.3         1 MOL      -0.0331
     14 CAN        54.1926   13.2801   51.4946 C.3         1 MOL      -0.0331
     15 CAO        54.6304   11.6440   53.2925 C.3         1 MOL      -0.0283
     16 CAP        59.4631    7.6478   55.5047 C.ar        1 MOL       0.0022
     17 CAQ        58.5502    8.4509   54.7474 C.ar        1 MOL       0.0101
     18 CAR        56.7128   10.0821   53.2155 C.ar        1 MOL      -0.0233
     19 CAS        56.4421   12.0703   51.5408 C.3         1 MOL      -0.0252
     20 NAT        54.5099   13.1078   52.9559 N.4         1 MOL       0.2304
     21 CAU        55.7500   10.9417   52.4160 C.3         1 MOL       0.0922
     22 H1         55.5661   10.0461   50.6812 H           1 MOL       0.1945
     23 H2         61.9128    5.4882   57.5839 H           1 MOL       0.0663
     24 H3         62.4027    7.8336   57.1699 H           1 MOL       0.0633
     25 H4         59.8777    4.5043   56.6935 H           1 MOL       0.0633
     26 H5         60.9146    9.1705   55.8525 H           1 MOL       0.0672
     27 H6         58.3306    5.8352   55.4355 H           1 MOL       0.0672
     28 H7         58.7476   10.2162   55.9026 H           1 MOL       0.0700
     29 H8         57.9822    6.9467   53.3486 H           1 MOL       0.0700
     30 H9         57.2412   11.5315   54.6765 H           1 MOL       0.0838
     31 H10        56.4669    8.2651   52.1193 H           1 MOL       0.0838
     32 H11        57.8082   12.9274   53.0427 H           1 MOL       0.0312
     33 H12        57.3758   14.0458   51.7806 H           1 MOL       0.0312
     34 H13        55.8057   13.5436   50.0301 H           1 MOL       0.0312
     35 H14        54.9740   12.0057   49.8809 H           1 MOL       0.0312
     36 H15        55.6755   14.8889   53.0979 H           1 MOL       0.0814
     37 H16        56.0198   13.7098   54.3489 H           1 MOL       0.0814
     38 H17        53.2592   12.7585   51.2527 H           1 MOL       0.0814
     39 H18        54.0277   14.3405   51.2719 H           1 MOL       0.0814
     40 H19        53.6579   11.1754   53.1438 H           1 MOL       0.0725
     41 H20        54.8287   11.5493   54.3649 H           1 MOL       0.0725
     42 H21        57.2484   11.6539   50.9316 H           1 MOL       0.0225
     43 H22        53.7521   13.5170   53.5095 H           1 MOL       0.2025
@<TRIPOS>BOND
     1    21     1   1
     2     3     2  ar
     3     4     2  ar
     4     5     3  ar
     5     6     4  ar
     6    16     5  ar
     7    16     6  ar
     8     9     7  ar
     9     7    17  ar
    10    10     8  ar
    11     8    17  ar
    12    18     9  ar
    13    18    10  ar
    14    13    11   1
    15    11    19   1
    16    14    12   1
    17    12    19   1
    18    20    13   1
    19    20    14   1
    20    15    20   1
    21    21    15   1
    22    17    16   1
    23    18    21   1
    24    19    21   1
    25     1    22   1
    26     2    23   1
    27     3    24   1
    28     4    25   1
    29     5    26   1
    30     6    27   1
    31     7    28   1
    32     8    29   1
    33     9    30   1
    34    10    31   1
    35    11    32   1
    36    11    33   1
    37    12    34   1
    38    12    35   1
    39    13    36   1
    40    13    37   1
    41    14    38   1
    42    14    39   1
    43    15    40   1
    44    15    41   1
    45    19    42   1
    46    20    43   1
@<TRIPOS>SUBSTRUCTURE
     1  MOL      2

