@<TRIPOS>MOLECULE
3acw_ligand_055
    43    46
SMALL
GAST_HUCK
****
This file was generated by PARSER (from files_GN.cpp)

@<TRIPOS>ATOM
      1 OAA        53.3070    2.7865   50.6245 O.3         1 MOL      -0.4236
      2 CAB        59.7057    6.6397   55.9165 C.ar        1 MOL      -0.0563
      3 CAC        59.2731    7.5554   54.9413 C.ar        1 MOL      -0.0552
      4 CAD        59.1784    5.3365   55.9354 C.ar        1 MOL      -0.0552
      5 CAE        58.2962    7.1762   53.9993 C.ar        1 MOL      -0.0454
      6 CAF        58.2002    4.9572   54.9956 C.ar        1 MOL      -0.0454
      7 CAG        56.7018    4.2237   52.4968 C.ar        1 MOL      -0.0261
      8 CAH        55.6450    6.3790   52.7807 C.ar        1 MOL      -0.0261
      9 CAI        55.6570    3.8257   51.6457 C.ar        1 MOL      -0.0390
     10 CAJ        54.5917    5.9774   51.9383 C.ar        1 MOL      -0.0390
     11 CAK        53.9191    5.9792   48.6343 C.3         1 MOL      -0.0152
     12 CAL        52.8445    3.8145   47.9553 C.3         1 MOL      -0.0152
     13 CAM        52.5025    6.5734   48.9349 C.3         1 MOL      -0.0331
     14 CAN        51.4485    4.4704   48.2206 C.3         1 MOL      -0.0331
     15 CAO        52.0093    4.8174   50.5947 C.3         1 MOL      -0.0283
     16 CAP        57.7338    5.8751   54.0185 C.ar        1 MOL       0.0022
     17 CAQ        56.7073    5.4997   53.1011 C.ar        1 MOL       0.0101
     18 CAR        54.5508    4.6748   51.3697 C.ar        1 MOL      -0.0233
     19 CAS        53.9035    4.4395   48.9272 C.3         1 MOL      -0.0252
     20 NAT        51.5444    5.4836   49.3280 N.4         1 MOL       0.2304
     21 CAU        53.4629    4.2015   50.4262 C.3         1 MOL       0.0922
     22 H1         53.0359    2.6753   51.5655 H           1 MOL       0.1945
     23 H2         60.4029    6.9201   56.6093 H           1 MOL       0.0663
     24 H3         59.6696    8.4979   54.9182 H           1 MOL       0.0633
     25 H4         59.4969    4.6681   56.6395 H           1 MOL       0.0633
     26 H5         58.0073    7.8559   53.2917 H           1 MOL       0.0672
     27 H6         57.8169    4.0122   55.0440 H           1 MOL       0.0672
     28 H7         57.4734    3.5692   52.6595 H           1 MOL       0.0700
     29 H8         55.6187    7.3252   53.1702 H           1 MOL       0.0700
     30 H9         55.7183    2.8958   51.2253 H           1 MOL       0.0838
     31 H10        53.8675    6.6658   51.7352 H           1 MOL       0.0838
     32 H11        54.6846    6.4724   49.2396 H           1 MOL       0.0312
     33 H12        54.1856    6.1531   47.5857 H           1 MOL       0.0312
     34 H13        53.1455    3.9845   46.9168 H           1 MOL       0.0312
     35 H14        52.7895    2.7315   48.1013 H           1 MOL       0.0312
     36 H15        52.1255    7.1019   48.0538 H           1 MOL       0.0814
     37 H16        52.5687    7.3145   49.7345 H           1 MOL       0.0814
     38 H17        50.7134    3.7013   48.4851 H           1 MOL       0.0814
     39 H18        51.0810    4.9514   47.3054 H           1 MOL       0.0814
     40 H19        51.2810    4.0385   50.8524 H           1 MOL       0.0725
     41 H20        51.9454    5.5312   51.4121 H           1 MOL       0.0725
     42 H21        54.8865    3.9995   48.7262 H           1 MOL       0.0225
     43 H22        50.6203    5.8919   49.4882 H           1 MOL       0.2025
@<TRIPOS>BOND
     1    21     1   1
     2     3     2  ar
     3     4     2  ar
     4     5     3  ar
     5     6     4  ar
     6    16     5  ar
     7    16     6  ar
     8     9     7  ar
     9     7    17  ar
    10    10     8  ar
    11     8    17  ar
    12    18     9  ar
    13    18    10  ar
    14    13    11   1
    15    11    19   1
    16    14    12   1
    17    12    19   1
    18    20    13   1
    19    20    14   1
    20    15    20   1
    21    21    15   1
    22    17    16   1
    23    18    21   1
    24    19    21   1
    25     1    22   1
    26     2    23   1
    27     3    24   1
    28     4    25   1
    29     5    26   1
    30     6    27   1
    31     7    28   1
    32     8    29   1
    33     9    30   1
    34    10    31   1
    35    11    32   1
    36    11    33   1
    37    12    34   1
    38    12    35   1
    39    13    36   1
    40    13    37   1
    41    14    38   1
    42    14    39   1
    43    15    40   1
    44    15    41   1
    45    19    42   1
    46    20    43   1
@<TRIPOS>SUBSTRUCTURE
     1  MOL      2

