@<TRIPOS>MOLECULE
3acw_ligand_045
    43    46
SMALL
GAST_HUCK
****
This file was generated by PARSER (from files_GN.cpp)

@<TRIPOS>ATOM
      1 OAA        55.2955   19.5342   52.7080 O.3         1 MOL      -0.4236
      2 CAB        54.1493   10.6951   54.3734 C.ar        1 MOL      -0.0563
      3 CAC        55.4486   10.9942   53.9322 C.ar        1 MOL      -0.0552
      4 CAD        53.2258   11.7296   54.6061 C.ar        1 MOL      -0.0552
      5 CAE        55.8337   12.3332   53.7246 C.ar        1 MOL      -0.0454
      6 CAF        53.6053   13.0689   54.3987 C.ar        1 MOL      -0.0454
      7 CAG        55.2180   15.3619   52.5376 C.ar        1 MOL      -0.0261
      8 CAH        55.7176   15.4667   54.9140 C.ar        1 MOL      -0.0261
      9 CAI        55.5816   16.7160   52.4117 C.ar        1 MOL      -0.0390
     10 CAJ        56.0836   16.8168   54.7782 C.ar        1 MOL      -0.0390
     11 CAK        58.9540   18.5222   52.8675 C.3         1 MOL      -0.0152
     12 CAL        57.8215   20.5145   51.7814 C.3         1 MOL      -0.0152
     13 CAM        59.3008   19.4371   54.0882 C.3         1 MOL      -0.0331
     14 CAN        58.1990   21.3699   53.0338 C.3         1 MOL      -0.0331
     15 CAO        56.9084   19.8639   54.4967 C.3         1 MOL      -0.0283
     16 CAP        54.9098   13.3808   53.9524 C.ar        1 MOL       0.0022
     17 CAQ        55.2935   14.7282   53.7947 C.ar        1 MOL       0.0101
     18 CAR        56.0498   17.4808   53.5181 C.ar        1 MOL      -0.0233
     19 CAS        57.6224   19.0169   52.2096 C.3         1 MOL      -0.0252
     20 NAT        58.2536   20.5029   54.2584 N.4         1 MOL       0.2304
     21 CAU        56.4611   18.9260   53.2848 C.3         1 MOL       0.0922
     22 H1         54.5926   19.4977   53.3890 H           1 MOL       0.1945
     23 H2         53.8747    9.7221   54.5351 H           1 MOL       0.0663
     24 H3         56.1186   10.2387   53.7649 H           1 MOL       0.0633
     25 H4         52.2785   11.5136   54.9266 H           1 MOL       0.0633
     26 H5         56.7878   12.5386   53.4167 H           1 MOL       0.0672
     27 H6         52.9267   13.8136   54.5772 H           1 MOL       0.0672
     28 H7         54.8817   14.8519   51.7118 H           1 MOL       0.0700
     29 H8         55.7630   15.0326   55.8382 H           1 MOL       0.0700
     30 H9         55.4913   17.1481   51.4842 H           1 MOL       0.0838
     31 H10        56.3560   17.2859   55.6343 H           1 MOL       0.0838
     32 H11        58.8483   17.4868   53.2008 H           1 MOL       0.0312
     33 H12        59.7626   18.5483   52.1329 H           1 MOL       0.0312
     34 H13        58.6037   20.5819   51.0265 H           1 MOL       0.0312
     35 H14        56.9071   20.9043   51.3265 H           1 MOL       0.0312
     36 H15        60.2823   19.9033   53.9443 H           1 MOL       0.0814
     37 H16        59.3709   18.8355   54.9990 H           1 MOL       0.0814
     38 H17        57.4641   22.1683   53.1841 H           1 MOL       0.0814
     39 H18        59.1681   21.8558   52.8821 H           1 MOL       0.0814
     40 H19        56.1752   20.6644   54.6617 H           1 MOL       0.0725
     41 H20        56.9834   19.3520   55.4486 H           1 MOL       0.0725
     42 H21        57.4165   18.4253   51.3126 H           1 MOL       0.0225
     43 H22        58.4973   21.0812   55.0675 H           1 MOL       0.2025
@<TRIPOS>BOND
     1    21     1   1
     2     3     2  ar
     3     4     2  ar
     4     5     3  ar
     5     6     4  ar
     6    16     5  ar
     7    16     6  ar
     8     9     7  ar
     9     7    17  ar
    10    10     8  ar
    11     8    17  ar
    12    18     9  ar
    13    18    10  ar
    14    13    11   1
    15    11    19   1
    16    14    12   1
    17    12    19   1
    18    20    13   1
    19    20    14   1
    20    15    20   1
    21    21    15   1
    22    17    16   1
    23    18    21   1
    24    19    21   1
    25     1    22   1
    26     2    23   1
    27     3    24   1
    28     4    25   1
    29     5    26   1
    30     6    27   1
    31     7    28   1
    32     8    29   1
    33     9    30   1
    34    10    31   1
    35    11    32   1
    36    11    33   1
    37    12    34   1
    38    12    35   1
    39    13    36   1
    40    13    37   1
    41    14    38   1
    42    14    39   1
    43    15    40   1
    44    15    41   1
    45    19    42   1
    46    20    43   1
@<TRIPOS>SUBSTRUCTURE
     1  MOL      2

