@<TRIPOS>MOLECULE
3acw_ligand_019
    43    46
SMALL
GAST_HUCK
****
This file was generated by PARSER (from files_GN.cpp)

@<TRIPOS>ATOM
      1 OAA        56.3972   10.0810   50.8219 O.3         1 MOL      -0.4236
      2 CAB        53.2045    1.6418   51.3283 C.ar        1 MOL      -0.0563
      3 CAC        54.4240    2.0935   50.7955 C.ar        1 MOL      -0.0552
      4 CAD        52.2965    2.5588   51.8880 C.ar        1 MOL      -0.0552
      5 CAE        54.7334    3.4665   50.8126 C.ar        1 MOL      -0.0454
      6 CAF        52.6109    3.9296   51.9200 C.ar        1 MOL      -0.0454
      7 CAG        54.2815    6.4473   52.6284 C.ar        1 MOL      -0.0261
      8 CAH        54.3306    6.4989   50.2033 C.ar        1 MOL      -0.0261
      9 CAI        54.6106    7.8139   52.6582 C.ar        1 MOL      -0.0390
     10 CAJ        54.6268    7.8762   50.2437 C.ar        1 MOL      -0.0390
     11 CAK        53.8574   10.9987   53.5116 C.3         1 MOL      -0.0152
     12 CAL        55.8093   12.2485   52.5441 C.3         1 MOL      -0.0152
     13 CAM        52.9286   11.8355   52.5726 C.3         1 MOL      -0.0331
     14 CAN        54.8447   12.9903   51.5595 C.3         1 MOL      -0.0331
     15 CAO        54.0327   10.8736   50.5929 C.3         1 MOL      -0.0283
     16 CAP        53.8305    4.3964   51.3743 C.ar        1 MOL       0.0022
     17 CAQ        54.1417    5.7737   51.3991 C.ar        1 MOL       0.0101
     18 CAR        54.7580    8.5709   51.4725 C.ar        1 MOL      -0.0233
     19 CAS        55.2563   10.8024   52.8209 C.3         1 MOL      -0.0252
     20 NAT        53.6346   12.1481   51.2826 N.4         1 MOL       0.2304
     21 CAU        55.0932   10.0471   51.4384 C.3         1 MOL       0.0922
     22 H1         56.2656   10.3313   49.8793 H           1 MOL       0.1945
     23 H2         52.9760    0.6420   51.3095 H           1 MOL       0.0663
     24 H3         55.0865    1.4236   50.3953 H           1 MOL       0.0633
     25 H4         51.4070    2.2269   52.2718 H           1 MOL       0.0633
     26 H5         55.6274    3.7779   50.4275 H           1 MOL       0.0672
     27 H6         51.9396    4.5840   52.3276 H           1 MOL       0.0672
     28 H7         54.1761    5.9447   53.5131 H           1 MOL       0.0700
     29 H8         54.2453    6.0340   49.2964 H           1 MOL       0.0700
     30 H9         54.7460    8.2348   53.5747 H           1 MOL       0.0838
     31 H10        54.7455    8.3720   49.3565 H           1 MOL       0.0838
     32 H11        53.3656   10.0488   53.7233 H           1 MOL       0.0312
     33 H12        53.9910   11.5020   54.4761 H           1 MOL       0.0312
     34 H13        55.8821   12.8019   53.4844 H           1 MOL       0.0312
     35 H14        56.8163   12.2051   52.1232 H           1 MOL       0.0312
     36 H15        52.6346   12.7607   53.0793 H           1 MOL       0.0814
     37 H16        52.0086   11.2796   52.3665 H           1 MOL       0.0814
     38 H17        55.3562   13.2099   50.6194 H           1 MOL       0.0814
     39 H18        54.5364   13.9500   51.9834 H           1 MOL       0.0814
     40 H19        54.4239   11.1345   49.6067 H           1 MOL       0.0725
     41 H20        53.1282   10.2859   50.4042 H           1 MOL       0.0725
     42 H21        55.9493   10.2707   53.4823 H           1 MOL       0.0225
     43 H22        53.0046   12.6566   50.6612 H           1 MOL       0.2025
@<TRIPOS>BOND
     1    21     1   1
     2     3     2  ar
     3     4     2  ar
     4     5     3  ar
     5     6     4  ar
     6    16     5  ar
     7    16     6  ar
     8     9     7  ar
     9     7    17  ar
    10    10     8  ar
    11     8    17  ar
    12    18     9  ar
    13    18    10  ar
    14    13    11   1
    15    11    19   1
    16    14    12   1
    17    12    19   1
    18    20    13   1
    19    20    14   1
    20    15    20   1
    21    21    15   1
    22    17    16   1
    23    18    21   1
    24    19    21   1
    25     1    22   1
    26     2    23   1
    27     3    24   1
    28     4    25   1
    29     5    26   1
    30     6    27   1
    31     7    28   1
    32     8    29   1
    33     9    30   1
    34    10    31   1
    35    11    32   1
    36    11    33   1
    37    12    34   1
    38    12    35   1
    39    13    36   1
    40    13    37   1
    41    14    38   1
    42    14    39   1
    43    15    40   1
    44    15    41   1
    45    19    42   1
    46    20    43   1
@<TRIPOS>SUBSTRUCTURE
     1  MOL      2

