@<TRIPOS>MOLECULE
3acw_ligand_006
    43    46
SMALL
GAST_HUCK
****
This file was generated by PARSER (from files_GN.cpp)

@<TRIPOS>ATOM
      1 OAA        55.4988    8.1933   50.1233 O.3         1 MOL      -0.4236
      2 CAB        51.5591    0.8478   53.4156 C.ar        1 MOL      -0.0563
      3 CAC        52.9127    1.0002   53.0680 C.ar        1 MOL      -0.0552
      4 CAD        50.7015    1.9628   53.3724 C.ar        1 MOL      -0.0552
      5 CAE        53.4154    2.2667   52.6950 C.ar        1 MOL      -0.0454
      6 CAF        51.1938    3.2234   52.9878 C.ar        1 MOL      -0.0454
      7 CAG        52.5383    5.3607   51.1868 C.ar        1 MOL      -0.0261
      8 CAH        54.1538    5.2546   52.9936 C.ar        1 MOL      -0.0261
      9 CAI        53.0483    6.6134   50.7948 C.ar        1 MOL      -0.0390
     10 CAJ        54.6113    6.5327   52.6298 C.ar        1 MOL      -0.0390
     11 CAK        54.3750    9.9968   53.2622 C.3         1 MOL      -0.0152
     12 CAL        56.0375   10.7153   51.5030 C.3         1 MOL      -0.0152
     13 CAM        53.3375   10.9451   52.5689 C.3         1 MOL      -0.0331
     14 CAN        54.9360   11.5821   50.8071 C.3         1 MOL      -0.0331
     15 CAO        53.4858    9.6174   50.5146 C.3         1 MOL      -0.0283
     16 CAP        52.5607    3.3951   52.6588 C.ar        1 MOL       0.0022
     17 CAQ        53.0746    4.6746   52.3028 C.ar        1 MOL       0.0101
     18 CAR        54.0308    7.2810   51.5655 C.ar        1 MOL      -0.0233
     19 CAS        55.3837    9.4668   52.1912 C.3         1 MOL      -0.0252
     20 NAT        53.5869   11.0025   51.0919 N.4         1 MOL       0.2304
     21 CAU        54.5757    8.6232   51.1191 C.3         1 MOL       0.0922
     22 H1         55.6976    8.9952   49.5727 H           1 MOL       0.1945
     23 H2         51.2050   -0.0620   53.6988 H           1 MOL       0.0663
     24 H3         53.5415    0.1930   53.0897 H           1 MOL       0.0633
     25 H4         49.7163    1.8573   53.6429 H           1 MOL       0.0633
     26 H5         54.4009    2.3519   52.4398 H           1 MOL       0.0672
     27 H6         50.5527    4.0237   52.9803 H           1 MOL       0.0672
     28 H7         51.7934    4.9214   50.6236 H           1 MOL       0.0700
     29 H8         54.6100    4.7712   53.7644 H           1 MOL       0.0700
     30 H9         52.7113    7.0232   49.9215 H           1 MOL       0.0838
     31 H10        55.4205    6.8928   53.1430 H           1 MOL       0.0838
     32 H11        53.8620    9.1547   53.7408 H           1 MOL       0.0312
     33 H12        54.9128   10.5338   54.0473 H           1 MOL       0.0312
     34 H13        56.5602   11.3124   52.2564 H           1 MOL       0.0312
     35 H14        56.7893   10.3955   50.7707 H           1 MOL       0.0312
     36 H15        53.4035   11.9514   53.0028 H           1 MOL       0.0814
     37 H16        52.3241   10.5883   52.7657 H           1 MOL       0.0814
     38 H17        55.1097   11.6171   49.7297 H           1 MOL       0.0814
     39 H18        54.9843   12.6174   51.1678 H           1 MOL       0.0814
     40 H19        53.5831    9.6681   49.4196 H           1 MOL       0.0725
     41 H20        52.4682    9.2774   50.7102 H           1 MOL       0.0725
     42 H21        56.1714    8.8979   52.6678 H           1 MOL       0.0225
     43 H22        52.8788   11.6018   50.6588 H           1 MOL       0.2025
@<TRIPOS>BOND
     1    21     1   1
     2     3     2  ar
     3     4     2  ar
     4     5     3  ar
     5     6     4  ar
     6    16     5  ar
     7    16     6  ar
     8     9     7  ar
     9     7    17  ar
    10    10     8  ar
    11     8    17  ar
    12    18     9  ar
    13    18    10  ar
    14    13    11   1
    15    11    19   1
    16    14    12   1
    17    12    19   1
    18    20    13   1
    19    20    14   1
    20    15    20   1
    21    21    15   1
    22    17    16   1
    23    18    21   1
    24    19    21   1
    25     1    22   1
    26     2    23   1
    27     3    24   1
    28     4    25   1
    29     5    26   1
    30     6    27   1
    31     7    28   1
    32     8    29   1
    33     9    30   1
    34    10    31   1
    35    11    32   1
    36    11    33   1
    37    12    34   1
    38    12    35   1
    39    13    36   1
    40    13    37   1
    41    14    38   1
    42    14    39   1
    43    15    40   1
    44    15    41   1
    45    19    42   1
    46    20    43   1
@<TRIPOS>SUBSTRUCTURE
     1  MOL      2

