@<TRIPOS>MOLECULE
3acw_ligand_063
    43    46
SMALL
GAST_HUCK
****
This file was generated by PARSER (from files_GN.cpp)

@<TRIPOS>ATOM
      1 OAA        55.4841   14.0296   50.4299 O.3         1 MOL      -0.4236
      2 CAB        56.6128   19.9425   57.3656 C.ar        1 MOL      -0.0563
      3 CAC        56.9666   20.2028   56.0295 C.ar        1 MOL      -0.0552
      4 CAD        56.2825   18.6346   57.7590 C.ar        1 MOL      -0.0552
      5 CAE        56.9455   19.1677   55.0779 C.ar        1 MOL      -0.0454
      6 CAF        56.2639   17.5937   56.8128 C.ar        1 MOL      -0.0454
      7 CAG        55.5483   16.8402   53.4709 C.ar        1 MOL      -0.0261
      8 CAH        57.4373   15.7568   54.5355 C.ar        1 MOL      -0.0261
      9 CAI        55.4991   15.8070   52.5148 C.ar        1 MOL      -0.0390
     10 CAJ        57.3985   14.7441   53.5575 C.ar        1 MOL      -0.0390
     11 CAK        57.0380   11.5166   52.8386 C.3         1 MOL      -0.0152
     12 CAL        55.7973   11.2723   50.7041 C.3         1 MOL      -0.0152
     13 CAM        58.3864   11.4607   52.0417 C.3         1 MOL      -0.0331
     14 CAN        57.1497   11.2643   49.9102 C.3         1 MOL      -0.0331
     15 CAO        57.8194   13.4709   50.7363 C.3         1 MOL      -0.0283
     16 CAP        56.5789   17.8572   55.4594 C.ar        1 MOL       0.0022
     17 CAQ        56.5209   16.8245   54.4940 C.ar        1 MOL       0.0101
     18 CAR        56.4276   14.7294   52.5232 C.ar        1 MOL      -0.0233
     19 CAS        55.9506   12.2174   51.9516 C.3         1 MOL      -0.0252
     20 NAT        58.2093   12.0221   50.6585 N.4         1 MOL       0.2304
     21 CAU        56.4204   13.6495   51.4550 C.3         1 MOL       0.0922
     22 H1         55.8095   14.8794   50.0635 H           1 MOL       0.1945
     23 H2         56.6215   20.6980   58.0540 H           1 MOL       0.0663
     24 H3         57.2483   21.1415   55.7490 H           1 MOL       0.0633
     25 H4         56.0576   18.4385   58.7333 H           1 MOL       0.0633
     26 H5         57.2009   19.3773   54.1087 H           1 MOL       0.0672
     27 H6         55.9963   16.6518   57.1102 H           1 MOL       0.0672
     28 H7         54.8608   17.5987   53.4186 H           1 MOL       0.0700
     29 H8         58.1612   15.7208   55.2596 H           1 MOL       0.0700
     30 H9         54.7652   15.8629   51.8050 H           1 MOL       0.0838
     31 H10        58.1189   14.0262   53.6046 H           1 MOL       0.0838
     32 H11        57.1560   12.0233   53.7947 H           1 MOL       0.0312
     33 H12        56.7181   10.5002   53.0848 H           1 MOL       0.0312
     34 H13        55.5477   10.2570   51.0266 H           1 MOL       0.0312
     35 H14        54.9771   11.6040   50.0629 H           1 MOL       0.0312
     36 H15        58.7438   10.4292   51.9765 H           1 MOL       0.0814
     37 H16        59.1589   12.0259   52.5659 H           1 MOL       0.0814
     38 H17        57.0012   11.7186   48.9247 H           1 MOL       0.0814
     39 H18        57.4815   10.2377   49.7382 H           1 MOL       0.0814
     40 H19        57.7932   13.8834   49.7222 H           1 MOL       0.0725
     41 H20        58.6131   14.0159   51.2494 H           1 MOL       0.0725
     42 H21        55.0019   12.2869   52.4912 H           1 MOL       0.0225
     43 H22        59.0924   11.9371   50.1537 H           1 MOL       0.2025
@<TRIPOS>BOND
     1    21     1   1
     2     3     2  ar
     3     4     2  ar
     4     5     3  ar
     5     6     4  ar
     6    16     5  ar
     7    16     6  ar
     8     9     7  ar
     9     7    17  ar
    10    10     8  ar
    11     8    17  ar
    12    18     9  ar
    13    18    10  ar
    14    13    11   1
    15    11    19   1
    16    14    12   1
    17    12    19   1
    18    20    13   1
    19    20    14   1
    20    15    20   1
    21    21    15   1
    22    17    16   1
    23    18    21   1
    24    19    21   1
    25     1    22   1
    26     2    23   1
    27     3    24   1
    28     4    25   1
    29     5    26   1
    30     6    27   1
    31     7    28   1
    32     8    29   1
    33     9    30   1
    34    10    31   1
    35    11    32   1
    36    11    33   1
    37    12    34   1
    38    12    35   1
    39    13    36   1
    40    13    37   1
    41    14    38   1
    42    14    39   1
    43    15    40   1
    44    15    41   1
    45    19    42   1
    46    20    43   1
@<TRIPOS>SUBSTRUCTURE
     1  MOL      2

