@<TRIPOS>MOLECULE
3acw_ligand_027
    43    46
SMALL
GAST_HUCK
****
This file was generated by PARSER (from files_GN.cpp)

@<TRIPOS>ATOM
      1 OAA        53.1307   12.4310   51.9342 O.3         1 MOL      -0.4236
      2 CAB        53.0231    3.2913   51.3921 C.ar        1 MOL      -0.0563
      3 CAC        53.7573    3.8295   52.4625 C.ar        1 MOL      -0.0552
      4 CAD        52.5134    4.1517   50.4059 C.ar        1 MOL      -0.0552
      5 CAE        53.9917    5.2109   52.5338 C.ar        1 MOL      -0.0454
      6 CAF        52.7275    5.5391   50.4987 C.ar        1 MOL      -0.0454
      7 CAG        53.8855    8.1927   52.8892 C.ar        1 MOL      -0.0261
      8 CAH        53.7613    8.3639   50.4959 C.ar        1 MOL      -0.0261
      9 CAI        54.1095    9.5750   52.9818 C.ar        1 MOL      -0.0390
     10 CAJ        53.9825    9.7515   50.5884 C.ar        1 MOL      -0.0390
     11 CAK        56.7388   12.1234   50.7644 C.3         1 MOL      -0.0152
     12 CAL        55.1946   14.1202   50.8400 C.3         1 MOL      -0.0152
     13 CAM        57.3690   12.6472   52.1000 C.3         1 MOL      -0.0331
     14 CAN        55.7913   14.5404   52.2205 C.3         1 MOL      -0.0331
     15 CAO        55.2134   12.3791   53.2400 C.3         1 MOL      -0.0283
     16 CAP        53.4811    6.1142   51.5566 C.ar        1 MOL       0.0022
     17 CAQ        53.7157    7.5365   51.6421 C.ar        1 MOL       0.0101
     18 CAR        54.2329   10.3941   51.8279 C.ar        1 MOL      -0.0233
     19 CAS        55.2381   12.5576   50.7097 C.3         1 MOL      -0.0252
     20 NAT        56.3289   13.3393   52.9399 N.4         1 MOL       0.2304
     21 CAU        54.4595   11.8905   51.9227 C.3         1 MOL       0.0922
     22 H1         52.7783   12.3027   51.0256 H           1 MOL       0.1945
     23 H2         52.8595    2.2826   51.3331 H           1 MOL       0.0663
     24 H3         54.1261    3.2035   53.1838 H           1 MOL       0.0633
     25 H4         51.9794    3.7596   49.6238 H           1 MOL       0.0633
     26 H5         54.5616    5.5559   53.3094 H           1 MOL       0.0672
     27 H6         52.3051    6.1299   49.7780 H           1 MOL       0.0672
     28 H7         53.8171    7.6673   53.7651 H           1 MOL       0.0700
     29 H8         53.6388    7.9714   49.5623 H           1 MOL       0.0700
     30 H9         54.1560    9.9843   53.9172 H           1 MOL       0.0838
     31 H10        53.9379   10.2855   49.7227 H           1 MOL       0.0838
     32 H11        56.8137   11.0325   50.7088 H           1 MOL       0.0312
     33 H12        57.2801   12.5302   49.9042 H           1 MOL       0.0312
     34 H13        55.7732   14.5767   50.0314 H           1 MOL       0.0312
     35 H14        54.1665   14.4786   50.7446 H           1 MOL       0.0312
     36 H15        58.1852   13.3414   51.8790 H           1 MOL       0.0814
     37 H16        57.8061   11.8125   52.6566 H           1 MOL       0.0814
     38 H17        55.0235   15.0274   52.8286 H           1 MOL       0.0814
     39 H18        56.5943   15.2689   52.0764 H           1 MOL       0.0814
     40 H19        54.5092   12.8430   53.9371 H           1 MOL       0.0725
     41 H20        55.6767   11.5552   53.7845 H           1 MOL       0.0725
     42 H21        54.8109   12.3007   49.7420 H           1 MOL       0.0225
     43 H22        56.7533   13.6402   53.8207 H           1 MOL       0.2025
@<TRIPOS>BOND
     1    21     1   1
     2     3     2  ar
     3     4     2  ar
     4     5     3  ar
     5     6     4  ar
     6    16     5  ar
     7    16     6  ar
     8     9     7  ar
     9     7    17  ar
    10    10     8  ar
    11     8    17  ar
    12    18     9  ar
    13    18    10  ar
    14    13    11   1
    15    11    19   1
    16    14    12   1
    17    12    19   1
    18    20    13   1
    19    20    14   1
    20    15    20   1
    21    21    15   1
    22    17    16   1
    23    18    21   1
    24    19    21   1
    25     1    22   1
    26     2    23   1
    27     3    24   1
    28     4    25   1
    29     5    26   1
    30     6    27   1
    31     7    28   1
    32     8    29   1
    33     9    30   1
    34    10    31   1
    35    11    32   1
    36    11    33   1
    37    12    34   1
    38    12    35   1
    39    13    36   1
    40    13    37   1
    41    14    38   1
    42    14    39   1
    43    15    40   1
    44    15    41   1
    45    19    42   1
    46    20    43   1
@<TRIPOS>SUBSTRUCTURE
     1  MOL      2

