@<TRIPOS>MOLECULE
3acw_ligand_012
    43    46
SMALL
GAST_HUCK
****
This file was generated by PARSER (from files_GN.cpp)

@<TRIPOS>ATOM
      1 OAA        52.2330   12.1328   51.6719 O.3         1 MOL      -0.4236
      2 CAB        55.5454   17.9889   57.7819 C.ar        1 MOL      -0.0563
      3 CAC        56.4473   17.5911   56.7813 C.ar        1 MOL      -0.0552
      4 CAD        54.2919   17.3590   57.8721 C.ar        1 MOL      -0.0552
      5 CAE        56.1105   16.5468   55.8987 C.ar        1 MOL      -0.0454
      6 CAF        53.9365   16.3528   56.9507 C.ar        1 MOL      -0.0454
      7 CAG        53.4655   13.9257   55.2680 C.ar        1 MOL      -0.0261
      8 CAH        55.1618   14.7404   53.7700 C.ar        1 MOL      -0.0261
      9 CAI        53.1515   12.9044   54.3503 C.ar        1 MOL      -0.0390
     10 CAJ        54.8519   13.7119   52.8572 C.ar        1 MOL      -0.0390
     11 CAK        54.5949    9.5745   53.2310 C.3         1 MOL      -0.0152
     12 CAL        52.5798    9.2442   51.7588 C.3         1 MOL      -0.0152
     13 CAM        55.4880    9.3907   51.9597 C.3         1 MOL      -0.0331
     14 CAN        53.5051    9.1445   50.5065 C.3         1 MOL      -0.0331
     15 CAO        54.4667   11.3710   50.9293 C.3         1 MOL      -0.0283
     16 CAP        54.8418   15.9089   55.9442 C.ar        1 MOL       0.0022
     17 CAQ        54.4984   14.8621   55.0170 C.ar        1 MOL       0.0101
     18 CAR        53.8764   12.7209   53.1431 C.ar        1 MOL      -0.0233
     19 CAS        53.2254   10.2057   52.8130 C.3         1 MOL      -0.0252
     20 NAT        54.7739    9.9094   50.7410 N.4         1 MOL       0.2304
     21 CAU        53.4870   11.6309   52.1631 C.3         1 MOL       0.0922
     22 H1         52.0790   11.7312   50.7904 H           1 MOL       0.1945
     23 H2         55.7991   18.7395   58.4249 H           1 MOL       0.0663
     24 H3         57.3506   18.0608   56.6906 H           1 MOL       0.0633
     25 H4         53.6255   17.6507   58.5944 H           1 MOL       0.0633
     26 H5         56.8258   16.2626   55.2264 H           1 MOL       0.0672
     27 H6         52.9950   15.9609   57.0297 H           1 MOL       0.0672
     28 H7         52.9181   13.9654   56.1294 H           1 MOL       0.0700
     29 H8         55.8603   15.4289   53.4771 H           1 MOL       0.0700
     30 H9         52.3566   12.3046   54.5789 H           1 MOL       0.0838
     31 H10        55.3318   13.7418   51.9601 H           1 MOL       0.0838
     32 H11        55.0964   10.2150   53.9595 H           1 MOL       0.0312
     33 H12        54.4220    8.6056   53.7086 H           1 MOL       0.0312
     34 H13        52.4444    8.2531   52.2018 H           1 MOL       0.0312
     35 H14        51.5943    9.6098   51.4715 H           1 MOL       0.0312
     36 H15        56.4361    9.9181   52.0899 H           1 MOL       0.0814
     37 H16        55.7360    8.3335   51.8207 H           1 MOL       0.0814
     38 H17        52.9926    9.5412   49.6265 H           1 MOL       0.0814
     39 H18        53.7412    8.0970   50.2927 H           1 MOL       0.0814
     40 H19        54.0397   11.7711   50.0011 H           1 MOL       0.0725
     41 H20        55.4319   11.8612   51.0494 H           1 MOL       0.0725
     42 H21        52.5575   10.2477   53.6733 H           1 MOL       0.0225
     43 H22        55.3771    9.8012   49.9234 H           1 MOL       0.2025
@<TRIPOS>BOND
     1    21     1   1
     2     3     2  ar
     3     4     2  ar
     4     5     3  ar
     5     6     4  ar
     6    16     5  ar
     7    16     6  ar
     8     9     7  ar
     9     7    17  ar
    10    10     8  ar
    11     8    17  ar
    12    18     9  ar
    13    18    10  ar
    14    13    11   1
    15    11    19   1
    16    14    12   1
    17    12    19   1
    18    20    13   1
    19    20    14   1
    20    15    20   1
    21    21    15   1
    22    17    16   1
    23    18    21   1
    24    19    21   1
    25     1    22   1
    26     2    23   1
    27     3    24   1
    28     4    25   1
    29     5    26   1
    30     6    27   1
    31     7    28   1
    32     8    29   1
    33     9    30   1
    34    10    31   1
    35    11    32   1
    36    11    33   1
    37    12    34   1
    38    12    35   1
    39    13    36   1
    40    13    37   1
    41    14    38   1
    42    14    39   1
    43    15    40   1
    44    15    41   1
    45    19    42   1
    46    20    43   1
@<TRIPOS>SUBSTRUCTURE
     1  MOL      2

