@<TRIPOS>MOLECULE
3acw_ligand_026
    43    46
SMALL
GAST_HUCK
****
This file was generated by PARSER (from files_GN.cpp)

@<TRIPOS>ATOM
      1 OAA        56.0769   18.3267   50.9111 O.3         1 MOL      -0.4236
      2 CAB        58.3109    9.6202   52.9977 C.ar        1 MOL      -0.0563
      3 CAC        57.5427   10.3027   53.9573 C.ar        1 MOL      -0.0552
      4 CAD        58.8007   10.3141   51.8760 C.ar        1 MOL      -0.0552
      5 CAE        57.2642   11.6693   53.7982 C.ar        1 MOL      -0.0454
      6 CAF        58.5258   11.6798   51.7151 C.ar        1 MOL      -0.0454
      7 CAG        57.0522   14.3185   51.3153 C.ar        1 MOL      -0.0261
      8 CAH        57.7759   14.6593   53.5979 C.ar        1 MOL      -0.0261
      9 CAI        56.8474   15.6998   51.1775 C.ar        1 MOL      -0.0390
     10 CAJ        57.5643   16.0351   53.4562 C.ar        1 MOL      -0.0390
     11 CAK        58.8781   19.0855   53.3777 C.3         1 MOL      -0.0152
     12 CAL        57.6877   20.4855   51.6958 C.3         1 MOL      -0.0152
     13 CAM        57.8986   19.6306   54.4736 C.3         1 MOL      -0.0331
     14 CAN        56.6938   20.9758   52.8030 C.3         1 MOL      -0.0331
     15 CAO        55.9402   18.6848   53.3008 C.3         1 MOL      -0.0283
     16 CAP        57.7563   12.3809   52.6754 C.ar        1 MOL       0.0022
     17 CAQ        57.5244   13.7750   52.5313 C.ar        1 MOL       0.0101
     18 CAR        57.0959   16.6105   52.2447 C.ar        1 MOL      -0.0233
     19 CAS        58.1201   19.0035   52.0093 C.3         1 MOL      -0.0252
     20 NAT        56.5526   19.9355   53.8765 N.4         1 MOL       0.2304
     21 CAU        56.8213   18.0985   52.1223 C.3         1 MOL       0.0922
     22 H1         55.2772   17.7664   50.9783 H           1 MOL       0.1945
     23 H2         58.5124    8.6262   53.1136 H           1 MOL       0.0663
     24 H3         57.1910    9.8016   54.7768 H           1 MOL       0.0633
     25 H4         59.3613    9.8230   51.1758 H           1 MOL       0.0633
     26 H5         56.6992   12.1447   54.5099 H           1 MOL       0.0672
     27 H6         58.9123   12.1671   50.9008 H           1 MOL       0.0672
     28 H7         56.8280   13.7053   50.5235 H           1 MOL       0.0700
     29 H8         58.1204   14.3062   54.4964 H           1 MOL       0.0700
     30 H9         56.4930   16.0272   50.2801 H           1 MOL       0.0838
     31 H10        57.7252   16.6156   54.2790 H           1 MOL       0.0838
     32 H11        59.2899   18.1182   53.6561 H           1 MOL       0.0312
     33 H12        59.7402   19.7513   53.2938 H           1 MOL       0.0312
     34 H13        58.5630   21.1408   51.6676 H           1 MOL       0.0312
     35 H14        57.2189   20.5516   50.7140 H           1 MOL       0.0312
     36 H15        58.3123   20.5431   54.9156 H           1 MOL       0.0814
     37 H16        57.7944   18.9087   55.2869 H           1 MOL       0.0814
     38 H17        55.7157   21.1902   52.3625 H           1 MOL       0.0814
     39 H18        57.0508   21.9113   53.2453 H           1 MOL       0.0814
     40 H19        54.9288   18.9160   52.9535 H           1 MOL       0.0725
     41 H20        55.8018   17.9624   54.1051 H           1 MOL       0.0725
     42 H21        58.7859   18.6333   51.2255 H           1 MOL       0.0225
     43 H22        55.9421   20.3009   54.6089 H           1 MOL       0.2025
@<TRIPOS>BOND
     1    21     1   1
     2     3     2  ar
     3     4     2  ar
     4     5     3  ar
     5     6     4  ar
     6    16     5  ar
     7    16     6  ar
     8     9     7  ar
     9     7    17  ar
    10    10     8  ar
    11     8    17  ar
    12    18     9  ar
    13    18    10  ar
    14    13    11   1
    15    11    19   1
    16    14    12   1
    17    12    19   1
    18    20    13   1
    19    20    14   1
    20    15    20   1
    21    21    15   1
    22    17    16   1
    23    18    21   1
    24    19    21   1
    25     1    22   1
    26     2    23   1
    27     3    24   1
    28     4    25   1
    29     5    26   1
    30     6    27   1
    31     7    28   1
    32     8    29   1
    33     9    30   1
    34    10    31   1
    35    11    32   1
    36    11    33   1
    37    12    34   1
    38    12    35   1
    39    13    36   1
    40    13    37   1
    41    14    38   1
    42    14    39   1
    43    15    40   1
    44    15    41   1
    45    19    42   1
    46    20    43   1
@<TRIPOS>SUBSTRUCTURE
     1  MOL      2

