@<TRIPOS>MOLECULE
3acw_ligand_031
    43    46
SMALL
GAST_HUCK
****
This file was generated by PARSER (from files_GN.cpp)

@<TRIPOS>ATOM
      1 OAA        55.1685   11.9974   50.1637 O.3         1 MOL      -0.4236
      2 CAB        55.8660    3.5007   53.6668 C.ar        1 MOL      -0.0563
      3 CAC        54.6692    4.1560   53.3274 C.ar        1 MOL      -0.0552
      4 CAD        57.0825    4.2028   53.6367 C.ar        1 MOL      -0.0552
      5 CAE        54.6931    5.5133   52.9574 C.ar        1 MOL      -0.0454
      6 CAF        57.1046    5.5553   53.2597 C.ar        1 MOL      -0.0454
      7 CAG        55.0525    8.1160   51.5471 C.ar        1 MOL      -0.0261
      8 CAH        56.8302    8.5321   53.1251 C.ar        1 MOL      -0.0261
      9 CAI        55.0807    9.4677   51.1703 C.ar        1 MOL      -0.0390
     10 CAJ        56.8084    9.8978   52.7866 C.ar        1 MOL      -0.0390
     11 CAK        58.3055   12.8546   52.1496 C.3         1 MOL      -0.0152
     12 CAL        57.1297   13.9111   50.2549 C.3         1 MOL      -0.0152
     13 CAM        57.4991   13.7601   53.1406 C.3         1 MOL      -0.0331
     14 CAN        56.3035   14.7920   51.2549 C.3         1 MOL      -0.0331
     15 CAO        55.3442   12.8211   52.4110 C.3         1 MOL      -0.0283
     16 CAP        55.9106    6.2377   52.9098 C.ar        1 MOL       0.0022
     17 CAQ        55.9371    7.6136   52.5249 C.ar        1 MOL       0.0101
     18 CAR        55.9831   10.4030   51.7501 C.ar        1 MOL      -0.0233
     19 CAS        57.3959   12.5049   50.9187 C.3         1 MOL      -0.0252
     20 NAT        56.1435   14.0858   52.5749 N.4         1 MOL       0.2304
     21 CAU        55.9964   11.8681   51.3342 C.3         1 MOL       0.0922
     22 H1         55.5915   11.4390   49.4769 H           1 MOL       0.1945
     23 H2         55.8509    2.5136   53.9335 H           1 MOL       0.0663
     24 H3         53.7829    3.6487   53.3498 H           1 MOL       0.0633
     25 H4         57.9548    3.7270   53.8833 H           1 MOL       0.0633
     26 H5         53.8039    5.9673   52.7382 H           1 MOL       0.0672
     27 H6         58.0085    6.0332   53.2258 H           1 MOL       0.0672
     28 H7         54.3761    7.4991   51.0923 H           1 MOL       0.0700
     29 H8         57.4755    8.2219   53.8569 H           1 MOL       0.0700
     30 H9         54.3943    9.7575   50.4741 H           1 MOL       0.0838
     31 H10        57.3718   10.5230   53.3533 H           1 MOL       0.0838
     32 H11        58.7062   11.9694   52.6324 H           1 MOL       0.0312
     33 H12        59.1920   13.3972   51.8117 H           1 MOL       0.0312
     34 H13        58.0701   14.4094   50.0103 H           1 MOL       0.0312
     35 H14        56.5966   13.8047   49.3112 H           1 MOL       0.0312
     36 H15        58.0485   14.6908   53.3203 H           1 MOL       0.0814
     37 H16        57.3936   13.2652   54.1099 H           1 MOL       0.0814
     38 H17        55.3200   15.0179   50.8351 H           1 MOL       0.0814
     39 H18        56.8087   15.7491   51.4102 H           1 MOL       0.0814
     40 H19        54.3220   13.0892   52.1246 H           1 MOL       0.0725
     41 H20        55.2526   12.3228   53.3800 H           1 MOL       0.0725
     42 H21        57.9301   11.8462   50.2268 H           1 MOL       0.0225
     43 H22        55.6511   14.7020   53.2243 H           1 MOL       0.2025
@<TRIPOS>BOND
     1    21     1   1
     2     3     2  ar
     3     4     2  ar
     4     5     3  ar
     5     6     4  ar
     6    16     5  ar
     7    16     6  ar
     8     9     7  ar
     9     7    17  ar
    10    10     8  ar
    11     8    17  ar
    12    18     9  ar
    13    18    10  ar
    14    13    11   1
    15    11    19   1
    16    14    12   1
    17    12    19   1
    18    20    13   1
    19    20    14   1
    20    15    20   1
    21    21    15   1
    22    17    16   1
    23    18    21   1
    24    19    21   1
    25     1    22   1
    26     2    23   1
    27     3    24   1
    28     4    25   1
    29     5    26   1
    30     6    27   1
    31     7    28   1
    32     8    29   1
    33     9    30   1
    34    10    31   1
    35    11    32   1
    36    11    33   1
    37    12    34   1
    38    12    35   1
    39    13    36   1
    40    13    37   1
    41    14    38   1
    42    14    39   1
    43    15    40   1
    44    15    41   1
    45    19    42   1
    46    20    43   1
@<TRIPOS>SUBSTRUCTURE
     1  MOL      2

