@<TRIPOS>MOLECULE
3acw_ligand_064
    43    46
SMALL
GAST_HUCK
****
This file was generated by PARSER (from files_GN.cpp)

@<TRIPOS>ATOM
      1 OAA        50.7292    3.8198   52.4423 O.3         1 MOL      -0.4236
      2 CAB        56.0886   11.0251   52.1027 C.ar        1 MOL      -0.0563
      3 CAC        55.3328   10.6058   53.2108 C.ar        1 MOL      -0.0552
      4 CAD        56.2044   10.1956   50.9739 C.ar        1 MOL      -0.0552
      5 CAE        54.6996    9.3491   53.1932 C.ar        1 MOL      -0.0454
      6 CAF        55.5688    8.9422   50.9523 C.ar        1 MOL      -0.0454
      7 CAG        53.1286    6.9459   51.1797 C.ar        1 MOL      -0.0261
      8 CAH        54.6089    6.2175   52.9541 C.ar        1 MOL      -0.0261
      9 CAI        52.4711    5.7065   51.2295 C.ar        1 MOL      -0.0390
     10 CAJ        53.9550    4.9754   52.9982 C.ar        1 MOL      -0.0390
     11 CAK        53.8301    1.6214   52.8433 C.3         1 MOL      -0.0152
     12 CAL        51.3931    1.1606   53.2372 C.3         1 MOL      -0.0152
     13 CAM        53.6777    0.9310   51.4485 C.3         1 MOL      -0.0331
     14 CAN        51.2643    0.5793   51.7895 C.3         1 MOL      -0.0331
     15 CAO        52.0735    2.6596   50.7588 C.3         1 MOL      -0.0283
     16 CAP        54.8165    8.4989   52.0663 C.ar        1 MOL       0.0022
     17 CAQ        54.1955    7.2270   52.0587 C.ar        1 MOL       0.0101
     18 CAR        52.8652    4.6855   52.1326 C.ar        1 MOL      -0.0233
     19 CAS        52.4701    2.3021   53.2430 C.3         1 MOL      -0.0252
     20 NAT        52.3058    1.1804   50.8907 N.4         1 MOL       0.2304
     21 CAU        52.0769    3.3982   52.1658 C.3         1 MOL       0.0922
     22 H1         50.6171    3.8270   53.4210 H           1 MOL       0.1945
     23 H2         56.5557   11.9335   52.1181 H           1 MOL       0.0663
     24 H3         55.2425   11.2090   54.0281 H           1 MOL       0.0633
     25 H4         56.7595   10.4999   50.1733 H           1 MOL       0.0633
     26 H5         54.1406    9.0636   54.0026 H           1 MOL       0.0672
     27 H6         55.6728    8.3416   50.1267 H           1 MOL       0.0672
     28 H7         52.8016    7.6577   50.5165 H           1 MOL       0.0700
     29 H8         55.3996    6.3871   53.5783 H           1 MOL       0.0700
     30 H9         51.6853    5.5549   50.5984 H           1 MOL       0.0838
     31 H10        54.2750    4.2962   53.6916 H           1 MOL       0.0838
     32 H11        54.6376    2.3568   52.8028 H           1 MOL       0.0312
     33 H12        54.1053    0.8797   53.5979 H           1 MOL       0.0312
     34 H13        51.6898    0.3686   53.9322 H           1 MOL       0.0312
     35 H14        50.4275    1.5441   53.5802 H           1 MOL       0.0312
     36 H15        53.8472   -0.1459   51.5407 H           1 MOL       0.0814
     37 H16        54.4341    1.3135   50.7588 H           1 MOL       0.0814
     38 H17        50.2647    0.7862   51.3912 H           1 MOL       0.0814
     39 H18        51.3797   -0.5088   51.8098 H           1 MOL       0.0814
     40 H19        51.1205    2.8234   50.2423 H           1 MOL       0.0725
     41 H20        52.8464    3.0652   50.0942 H           1 MOL       0.0725
     42 H21        52.5266    2.7299   54.2461 H           1 MOL       0.0225
     43 H22        52.2378    0.7497   49.9645 H           1 MOL       0.2025
@<TRIPOS>BOND
     1    21     1   1
     2     3     2  ar
     3     4     2  ar
     4     5     3  ar
     5     6     4  ar
     6    16     5  ar
     7    16     6  ar
     8     9     7  ar
     9     7    17  ar
    10    10     8  ar
    11     8    17  ar
    12    18     9  ar
    13    18    10  ar
    14    13    11   1
    15    11    19   1
    16    14    12   1
    17    12    19   1
    18    20    13   1
    19    20    14   1
    20    15    20   1
    21    21    15   1
    22    17    16   1
    23    18    21   1
    24    19    21   1
    25     1    22   1
    26     2    23   1
    27     3    24   1
    28     4    25   1
    29     5    26   1
    30     6    27   1
    31     7    28   1
    32     8    29   1
    33     9    30   1
    34    10    31   1
    35    11    32   1
    36    11    33   1
    37    12    34   1
    38    12    35   1
    39    13    36   1
    40    13    37   1
    41    14    38   1
    42    14    39   1
    43    15    40   1
    44    15    41   1
    45    19    42   1
    46    20    43   1
@<TRIPOS>SUBSTRUCTURE
     1  MOL      2

