@<TRIPOS>MOLECULE
3acw_ligand_059
    43    46
SMALL
GAST_HUCK
****
This file was generated by PARSER (from files_GN.cpp)

@<TRIPOS>ATOM
      1 OAA        58.1345    3.3650   52.4533 O.3         1 MOL      -0.4236
      2 CAB        55.6555   12.1058   53.8091 C.ar        1 MOL      -0.0563
      3 CAC        56.8925   11.6422   53.3240 C.ar        1 MOL      -0.0552
      4 CAD        54.6008   11.1987   54.0114 C.ar        1 MOL      -0.0552
      5 CAE        57.0747   10.2715   53.0493 C.ar        1 MOL      -0.0454
      6 CAF        54.7819    9.8327   53.7318 C.ar        1 MOL      -0.0454
      7 CAG        55.2577    7.2291   52.2204 C.ar        1 MOL      -0.0261
      8 CAH        57.2938    7.2347   53.5174 C.ar        1 MOL      -0.0261
      9 CAI        55.4291    5.8532   51.9805 C.ar        1 MOL      -0.0390
     10 CAJ        57.4578    5.8606   53.2590 C.ar        1 MOL      -0.0390
     11 CAK        55.0085    2.8645   50.3017 C.3         1 MOL      -0.0152
     12 CAL        57.0870    1.5860   50.6539 C.3         1 MOL      -0.0152
     13 CAM        54.2943    2.0488   51.4326 C.3         1 MOL      -0.0331
     14 CAN        56.3677    0.7527   51.7710 C.3         1 MOL      -0.0331
     15 CAO        55.8953    2.7588   53.1466 C.3         1 MOL      -0.0283
     16 CAP        56.0205    9.3398   53.2462 C.ar        1 MOL       0.0022
     17 CAQ        56.1983    7.9510   52.9789 C.ar        1 MOL       0.0101
     18 CAR        56.5618    5.1287   52.4340 C.ar        1 MOL      -0.0233
     19 CAS        56.5229    3.0587   50.6899 C.3         1 MOL      -0.0252
     20 NAT        55.2969    1.5698   52.4452 N.4         1 MOL       0.2304
     21 CAU        56.7512    3.6421   52.1604 C.3         1 MOL       0.0922
     22 H1         58.6332    3.5876   51.6321 H           1 MOL       0.1945
     23 H2         55.5184   13.0993   54.0039 H           1 MOL       0.0663
     24 H3         57.6553   12.3052   53.1652 H           1 MOL       0.0633
     25 H4         53.6966   11.5330   54.3608 H           1 MOL       0.0633
     26 H5         57.9816    9.9647   52.6885 H           1 MOL       0.0672
     27 H6         54.0006    9.1933   53.9095 H           1 MOL       0.0672
     28 H7         54.4328    7.6846   51.8284 H           1 MOL       0.0700
     29 H8         57.9735    7.7079   54.1221 H           1 MOL       0.0700
     30 H9         54.6733    5.3965   51.4804 H           1 MOL       0.0838
     31 H10        58.2490    5.3998   53.7038 H           1 MOL       0.0838
     32 H11        54.5002    3.8075   50.1074 H           1 MOL       0.0312
     33 H12        54.9298    2.3135   49.3593 H           1 MOL       0.0312
     34 H13        56.9154    1.1301   49.6732 H           1 MOL       0.0312
     35 H14        58.1701    1.5703   50.8008 H           1 MOL       0.0312
     36 H15        53.7749    1.1886   51.0023 H           1 MOL       0.0814
     37 H16        53.5294    2.6660   51.9132 H           1 MOL       0.0814
     38 H17        57.0953    0.4204   52.5124 H           1 MOL       0.0814
     39 H18        55.9260   -0.1467   51.3382 H           1 MOL       0.0814
     40 H19        56.5049    2.4078   53.9841 H           1 MOL       0.0725
     41 H20        55.0870    3.3423   53.5993 H           1 MOL       0.0725
     42 H21        57.0286    3.6757   49.9411 H           1 MOL       0.0225
     43 H22        54.8185    0.9879   53.1366 H           1 MOL       0.2025
@<TRIPOS>BOND
     1    21     1   1
     2     3     2  ar
     3     4     2  ar
     4     5     3  ar
     5     6     4  ar
     6    16     5  ar
     7    16     6  ar
     8     9     7  ar
     9     7    17  ar
    10    10     8  ar
    11     8    17  ar
    12    18     9  ar
    13    18    10  ar
    14    13    11   1
    15    11    19   1
    16    14    12   1
    17    12    19   1
    18    20    13   1
    19    20    14   1
    20    15    20   1
    21    21    15   1
    22    17    16   1
    23    18    21   1
    24    19    21   1
    25     1    22   1
    26     2    23   1
    27     3    24   1
    28     4    25   1
    29     5    26   1
    30     6    27   1
    31     7    28   1
    32     8    29   1
    33     9    30   1
    34    10    31   1
    35    11    32   1
    36    11    33   1
    37    12    34   1
    38    12    35   1
    39    13    36   1
    40    13    37   1
    41    14    38   1
    42    14    39   1
    43    15    40   1
    44    15    41   1
    45    19    42   1
    46    20    43   1
@<TRIPOS>SUBSTRUCTURE
     1  MOL      2

