@<TRIPOS>MOLECULE
3acw_ligand_033
    43    46
SMALL
GAST_HUCK
****
This file was generated by PARSER (from files_GN.cpp)

@<TRIPOS>ATOM
      1 OAA        54.9000   16.7422   51.8598 O.3         1 MOL      -0.4236
      2 CAB        53.2760    7.8684   50.3065 C.ar        1 MOL      -0.0563
      3 CAC        53.5411    8.1510   51.6573 C.ar        1 MOL      -0.0552
      4 CAD        53.3658    8.8911   49.3487 C.ar        1 MOL      -0.0552
      5 CAE        53.9271    9.4480   52.0439 C.ar        1 MOL      -0.0454
      6 CAF        53.7337   10.1947   49.7421 C.ar        1 MOL      -0.0454
      7 CAG        55.3134   12.6079   50.7129 C.ar        1 MOL      -0.0261
      8 CAH        53.9418   12.3956   52.6841 C.ar        1 MOL      -0.0261
      9 CAI        55.6829   13.9033   51.1186 C.ar        1 MOL      -0.0390
     10 CAJ        54.3321   13.6827   53.0967 C.ar        1 MOL      -0.0390
     11 CAK        58.0283   15.3963   53.6031 C.3         1 MOL      -0.0152
     12 CAL        57.5291   17.6895   52.7033 C.3         1 MOL      -0.0152
     13 CAM        57.6050   15.9055   55.0202 C.3         1 MOL      -0.0331
     14 CAN        57.0624   18.1449   54.1229 C.3         1 MOL      -0.0331
     15 CAO        55.3387   16.4006   54.2085 C.3         1 MOL      -0.0283
     16 CAP        54.0412   10.4977   51.0917 C.ar        1 MOL       0.0022
     17 CAQ        54.4378   11.8159   51.4948 C.ar        1 MOL       0.0101
     18 CAR        55.2420   14.4728   52.3467 C.ar        1 MOL      -0.0233
     19 CAS        57.2084   16.1670   52.5136 C.3         1 MOL      -0.0252
     20 NAT        56.5480   16.9679   54.8995 N.4         1 MOL       0.2304
     21 CAU        55.6591   15.8883   52.7323 C.3         1 MOL       0.0922
     22 H1         54.8009   16.2948   50.9929 H           1 MOL       0.1945
     23 H2         53.0053    6.9222   50.0257 H           1 MOL       0.0663
     24 H3         53.4608    7.4106   52.3581 H           1 MOL       0.0633
     25 H4         53.1581    8.6876   48.3676 H           1 MOL       0.0633
     26 H5         54.1405    9.6144   53.0296 H           1 MOL       0.0672
     27 H6         53.7612   10.9248   49.0254 H           1 MOL       0.0672
     28 H7         55.6955   12.2414   49.8368 H           1 MOL       0.0700
     29 H8         53.2604   11.8919   53.2570 H           1 MOL       0.0700
     30 H9         56.2807   14.4354   50.4835 H           1 MOL       0.0838
     31 H10        53.8990   14.0315   53.9468 H           1 MOL       0.0838
     32 H11        57.8606   14.3196   53.5207 H           1 MOL       0.0312
     33 H12        59.0961   15.5722   53.4525 H           1 MOL       0.0312
     34 H13        58.6055   17.8584   52.6002 H           1 MOL       0.0312
     35 H14        57.0348   18.2810   51.9286 H           1 MOL       0.0312
     36 H15        58.4728   16.3058   55.5527 H           1 MOL       0.0814
     37 H16        57.2269   15.0711   55.6183 H           1 MOL       0.0814
     38 H17        56.2758   18.8993   54.0277 H           1 MOL       0.0814
     39 H18        57.8898   18.6144   54.6635 H           1 MOL       0.0814
     40 H19        54.5613   17.1738   54.1924 H           1 MOL       0.0725
     41 H20        54.9580   15.6172   54.8558 H           1 MOL       0.0725
     42 H21        57.5502   15.8806   51.5192 H           1 MOL       0.0225
     43 H22        56.2876   17.2775   55.8383 H           1 MOL       0.2025
@<TRIPOS>BOND
     1    21     1   1
     2     3     2  ar
     3     4     2  ar
     4     5     3  ar
     5     6     4  ar
     6    16     5  ar
     7    16     6  ar
     8     9     7  ar
     9     7    17  ar
    10    10     8  ar
    11     8    17  ar
    12    18     9  ar
    13    18    10  ar
    14    13    11   1
    15    11    19   1
    16    14    12   1
    17    12    19   1
    18    20    13   1
    19    20    14   1
    20    15    20   1
    21    21    15   1
    22    17    16   1
    23    18    21   1
    24    19    21   1
    25     1    22   1
    26     2    23   1
    27     3    24   1
    28     4    25   1
    29     5    26   1
    30     6    27   1
    31     7    28   1
    32     8    29   1
    33     9    30   1
    34    10    31   1
    35    11    32   1
    36    11    33   1
    37    12    34   1
    38    12    35   1
    39    13    36   1
    40    13    37   1
    41    14    38   1
    42    14    39   1
    43    15    40   1
    44    15    41   1
    45    19    42   1
    46    20    43   1
@<TRIPOS>SUBSTRUCTURE
     1  MOL      2

