@<TRIPOS>MOLECULE
3acw_ligand_067
    43    46
SMALL
GAST_HUCK
****
This file was generated by PARSER (from files_GN.cpp)

@<TRIPOS>ATOM
      1 OAA        52.3083   10.4119   50.7855 O.3         1 MOL      -0.4236
      2 CAB        53.9794   16.9165   57.1436 C.ar        1 MOL      -0.0563
      3 CAC        52.7396   16.2826   56.9833 C.ar        1 MOL      -0.0552
      4 CAD        55.0933   16.4553   56.4267 C.ar        1 MOL      -0.0552
      5 CAE        52.6205   15.1550   56.1444 C.ar        1 MOL      -0.0454
      6 CAF        54.9646   15.3549   55.5605 C.ar        1 MOL      -0.0454
      7 CAG        54.7407   12.6470   54.3240 C.ar        1 MOL      -0.0261
      8 CAH        52.4385   13.1797   53.8603 C.ar        1 MOL      -0.0261
      9 CAI        54.6786   11.5808   53.4037 C.ar        1 MOL      -0.0390
     10 CAJ        52.3663   12.0785   52.9821 C.ar        1 MOL      -0.0390
     11 CAK        54.3311    8.2537   53.1454 C.3         1 MOL      -0.0152
     12 CAL        52.8846    7.6797   51.1916 C.3         1 MOL      -0.0152
     13 CAM        55.5798    8.1801   52.2008 C.3         1 MOL      -0.0331
     14 CAN        54.1568    7.6090   50.2831 C.3         1 MOL      -0.0331
     15 CAO        54.6833    9.9659   50.7341 C.3         1 MOL      -0.0283
     16 CAP        53.7356   14.6564   55.4129 C.ar        1 MOL       0.0022
     17 CAQ        53.6318   13.5038   54.5464 C.ar        1 MOL       0.0101
     18 CAR        53.4958   11.2769   52.6859 C.ar        1 MOL      -0.0233
     19 CAS        53.1023    8.7520   52.3204 C.3         1 MOL      -0.0252
     20 NAT        55.2042    8.5552   50.7920 N.4         1 MOL       0.2304
     21 CAU        53.4158   10.1513   51.6661 C.3         1 MOL       0.0922
     22 H1         52.4613   11.2850   50.3822 H           1 MOL       0.1945
     23 H2         54.0720   17.7177   57.7725 H           1 MOL       0.0663
     24 H3         51.9257   16.6367   57.4920 H           1 MOL       0.0633
     25 H4         55.9940   16.9261   56.5277 H           1 MOL       0.0633
     26 H5         51.7121   14.6908   56.0898 H           1 MOL       0.0672
     27 H6         55.7888   15.0699   55.0315 H           1 MOL       0.0672
     28 H7         55.6165   12.7922   54.8336 H           1 MOL       0.0700
     29 H8         51.6058   13.7600   53.9654 H           1 MOL       0.0700
     30 H9         55.5261   11.0325   53.2703 H           1 MOL       0.0838
     31 H10        51.4658   11.8832   52.5437 H           1 MOL       0.0838
     32 H11        54.5169    8.9147   53.9926 H           1 MOL       0.0312
     33 H12        54.1168    7.2642   53.5601 H           1 MOL       0.0312
     34 H13        52.6838    6.7001   51.6359 H           1 MOL       0.0312
     35 H14        52.0182    7.9388   50.5814 H           1 MOL       0.0312
     36 H15        55.9849    7.1634   52.2176 H           1 MOL       0.0814
     37 H16        56.3730    8.8389   52.5639 H           1 MOL       0.0814
     38 H17        53.8950    7.8585   49.2481 H           1 MOL       0.0814
     39 H18        54.5528    6.5881   50.2686 H           1 MOL       0.0814
     40 H19        54.4325   10.1999   49.6970 H           1 MOL       0.0725
     41 H20        55.4923   10.6526   50.9830 H           1 MOL       0.0725
     42 H21        52.2106    8.8129   52.9534 H           1 MOL       0.0225
     43 H22        56.0270    8.4806   50.1910 H           1 MOL       0.2025
@<TRIPOS>BOND
     1    21     1   1
     2     3     2  ar
     3     4     2  ar
     4     5     3  ar
     5     6     4  ar
     6    16     5  ar
     7    16     6  ar
     8     9     7  ar
     9     7    17  ar
    10    10     8  ar
    11     8    17  ar
    12    18     9  ar
    13    18    10  ar
    14    13    11   1
    15    11    19   1
    16    14    12   1
    17    12    19   1
    18    20    13   1
    19    20    14   1
    20    15    20   1
    21    21    15   1
    22    17    16   1
    23    18    21   1
    24    19    21   1
    25     1    22   1
    26     2    23   1
    27     3    24   1
    28     4    25   1
    29     5    26   1
    30     6    27   1
    31     7    28   1
    32     8    29   1
    33     9    30   1
    34    10    31   1
    35    11    32   1
    36    11    33   1
    37    12    34   1
    38    12    35   1
    39    13    36   1
    40    13    37   1
    41    14    38   1
    42    14    39   1
    43    15    40   1
    44    15    41   1
    45    19    42   1
    46    20    43   1
@<TRIPOS>SUBSTRUCTURE
     1  MOL      2

