@<TRIPOS>MOLECULE
3acw_ligand_065
    43    46
SMALL
GAST_HUCK
****
This file was generated by PARSER (from files_GN.cpp)

@<TRIPOS>ATOM
      1 OAA        53.3448    6.8134   49.6370 O.3         1 MOL      -0.4236
      2 CAB        59.9343    6.5763   56.0443 C.ar        1 MOL      -0.0563
      3 CAC        59.6280    7.5860   55.1167 C.ar        1 MOL      -0.0552
      4 CAD        59.2137    5.3707   56.0256 C.ar        1 MOL      -0.0552
      5 CAE        58.5981    7.3914   54.1770 C.ar        1 MOL      -0.0454
      6 CAF        58.1832    5.1761   55.0860 C.ar        1 MOL      -0.0454
      7 CAG        55.9012    7.0364   52.8615 C.ar        1 MOL      -0.0261
      8 CAH        56.6497    4.7662   52.5038 C.ar        1 MOL      -0.0261
      9 CAI        54.8998    6.8569   51.8888 C.ar        1 MOL      -0.0390
     10 CAJ        55.6752    4.6124   51.4969 C.ar        1 MOL      -0.0390
     11 CAK        52.7302    3.2173   50.7950 C.3         1 MOL      -0.0152
     12 CAL        51.3154    4.7671   49.4553 C.3         1 MOL      -0.0152
     13 CAM        53.2817    2.5977   49.4656 C.3         1 MOL      -0.0331
     14 CAN        51.8932    4.1507   48.1373 C.3         1 MOL      -0.0331
     15 CAO        54.2146    4.7493   48.7364 C.3         1 MOL      -0.0283
     16 CAP        57.8489    6.1856   54.1467 C.ar        1 MOL       0.0022
     17 CAQ        56.8048    5.9934   53.1850 C.ar        1 MOL       0.0101
     18 CAR        54.7768    5.6521   51.1457 C.ar        1 MOL      -0.0233
     19 CAS        52.4256    4.7382   50.5675 C.3         1 MOL      -0.0252
     20 NAT        53.2840    3.6231   48.3654 N.4         1 MOL       0.2304
     21 CAU        53.7236    5.4889   50.0525 C.3         1 MOL       0.0922
     22 H1         52.7250    6.7079   48.8821 H           1 MOL       0.1945
     23 H2         60.6776    6.7203   56.7339 H           1 MOL       0.0663
     24 H3         60.1569    8.4621   55.1250 H           1 MOL       0.0633
     25 H4         59.4322    4.6375   56.7049 H           1 MOL       0.0633
     26 H5         58.4105    8.1361   53.5005 H           1 MOL       0.0672
     27 H6         57.6707    4.2900   55.1037 H           1 MOL       0.0672
     28 H7         55.9576    7.9393   53.3362 H           1 MOL       0.0700
     29 H8         57.2664    3.9752   52.7049 H           1 MOL       0.0700
     30 H9         54.2652    7.6425   51.7269 H           1 MOL       0.0838
     31 H10        55.6485    3.7128   51.0161 H           1 MOL       0.0838
     32 H11        53.4379    3.0826   51.6126 H           1 MOL       0.0312
     33 H12        51.8163    2.6938   51.0915 H           1 MOL       0.0312
     34 H13        50.4427    4.1918   49.7796 H           1 MOL       0.0312
     35 H14        50.9650    5.7864   49.2808 H           1 MOL       0.0312
     36 H15        52.6748    1.7368   49.1682 H           1 MOL       0.0814
     37 H16        54.2947    2.2200   49.6204 H           1 MOL       0.0814
     38 H17        51.9079    4.9069   47.3466 H           1 MOL       0.0814
     39 H18        51.2455    3.3429   47.7814 H           1 MOL       0.0814
     40 H19        54.2742    5.4390   47.8877 H           1 MOL       0.0725
     41 H20        55.2260    4.3522   48.8468 H           1 MOL       0.0725
     42 H21        52.0456    5.1942   51.4878 H           1 MOL       0.0225
     43 H22        53.6120    3.1859   47.5004 H           1 MOL       0.2025
@<TRIPOS>BOND
     1    21     1   1
     2     3     2  ar
     3     4     2  ar
     4     5     3  ar
     5     6     4  ar
     6    16     5  ar
     7    16     6  ar
     8     9     7  ar
     9     7    17  ar
    10    10     8  ar
    11     8    17  ar
    12    18     9  ar
    13    18    10  ar
    14    13    11   1
    15    11    19   1
    16    14    12   1
    17    12    19   1
    18    20    13   1
    19    20    14   1
    20    15    20   1
    21    21    15   1
    22    17    16   1
    23    18    21   1
    24    19    21   1
    25     1    22   1
    26     2    23   1
    27     3    24   1
    28     4    25   1
    29     5    26   1
    30     6    27   1
    31     7    28   1
    32     8    29   1
    33     9    30   1
    34    10    31   1
    35    11    32   1
    36    11    33   1
    37    12    34   1
    38    12    35   1
    39    13    36   1
    40    13    37   1
    41    14    38   1
    42    14    39   1
    43    15    40   1
    44    15    41   1
    45    19    42   1
    46    20    43   1
@<TRIPOS>SUBSTRUCTURE
     1  MOL      2

