@<TRIPOS>MOLECULE
3acw_ligand_022
    43    46
SMALL
GAST_HUCK
****
This file was generated by PARSER (from files_GN.cpp)

@<TRIPOS>ATOM
      1 OAA        60.9996    6.1728   58.9672 O.3         1 MOL      -0.4236
      2 CAB        54.1981    3.7498   53.4203 C.ar        1 MOL      -0.0563
      3 CAC        55.3659    4.2198   52.8048 C.ar        1 MOL      -0.0552
      4 CAD        54.2043    3.4579   54.7911 C.ar        1 MOL      -0.0552
      5 CAE        56.5425    4.4033   53.5625 C.ar        1 MOL      -0.0454
      6 CAF        55.3782    3.6533   55.5547 C.ar        1 MOL      -0.0454
      7 CAG        58.7096    5.3590   55.3699 C.ar        1 MOL      -0.0261
      8 CAH        58.0498    3.6439   56.9329 C.ar        1 MOL      -0.0261
      9 CAI        59.8883    5.5722   56.1092 C.ar        1 MOL      -0.0390
     10 CAJ        59.2255    3.8781   57.6804 C.ar        1 MOL      -0.0390
     11 CAK        63.3210    4.5179   56.4588 C.3         1 MOL      -0.0152
     12 CAL        63.8034    6.1589   58.3163 C.3         1 MOL      -0.0152
     13 CAM        63.8018    3.3779   57.4109 C.3         1 MOL      -0.0331
     14 CAN        64.2185    4.9743   59.2381 C.3         1 MOL      -0.0331
     15 CAO        62.0020    3.9158   58.9943 C.3         1 MOL      -0.0283
     16 CAP        56.5720    4.1392   54.9566 C.ar        1 MOL       0.0022
     17 CAQ        57.7687    4.3641   55.7433 C.ar        1 MOL       0.0101
     18 CAR        60.2198    4.7967   57.2514 C.ar        1 MOL      -0.0233
     19 CAS        62.7057    5.6750   57.3148 C.3         1 MOL      -0.0252
     20 NAT        63.4859    3.7230   58.8389 N.4         1 MOL       0.2304
     21 CAU        61.4424    5.1100   58.1024 C.3         1 MOL       0.0922
     22 H1         60.0197    6.1773   58.9276 H           1 MOL       0.1945
     23 H2         53.3527    3.6146   52.8740 H           1 MOL       0.0663
     24 H3         55.3711    4.4257   51.8079 H           1 MOL       0.0633
     25 H4         53.3581    3.1128   55.2443 H           1 MOL       0.0633
     26 H5         57.3758    4.7259   53.0733 H           1 MOL       0.0672
     27 H6         55.3270    3.4614   56.5544 H           1 MOL       0.0672
     28 H7         58.5352    5.9688   54.5772 H           1 MOL       0.0700
     29 H8         57.4066    2.9357   57.2780 H           1 MOL       0.0700
     30 H9         60.4780    6.3431   55.8056 H           1 MOL       0.0838
     31 H10        59.3266    3.3786   58.5636 H           1 MOL       0.0838
     32 H11        62.5750    4.1317   55.7571 H           1 MOL       0.0312
     33 H12        64.1563    4.8971   55.8697 H           1 MOL       0.0312
     34 H13        64.6699    6.5232   57.7606 H           1 MOL       0.0312
     35 H14        63.4323    6.9926   58.9168 H           1 MOL       0.0312
     36 H15        64.8801    3.2266   57.2968 H           1 MOL       0.0814
     37 H16        63.3244    2.4333   57.1439 H           1 MOL       0.0814
     38 H17        64.0021    5.2133   60.2844 H           1 MOL       0.0814
     39 H18        65.2975    4.8073   59.1694 H           1 MOL       0.0814
     40 H19        61.7691    4.0883   60.0465 H           1 MOL       0.0725
     41 H20        61.5374    2.9673   58.7292 H           1 MOL       0.0725
     42 H21        62.4594    6.5298   56.6754 H           1 MOL       0.0225
     43 H22        63.7903    2.9555   59.4439 H           1 MOL       0.2025
@<TRIPOS>BOND
     1    21     1   1
     2     3     2  ar
     3     4     2  ar
     4     5     3  ar
     5     6     4  ar
     6    16     5  ar
     7    16     6  ar
     8     9     7  ar
     9     7    17  ar
    10    10     8  ar
    11     8    17  ar
    12    18     9  ar
    13    18    10  ar
    14    13    11   1
    15    11    19   1
    16    14    12   1
    17    12    19   1
    18    20    13   1
    19    20    14   1
    20    15    20   1
    21    21    15   1
    22    17    16   1
    23    18    21   1
    24    19    21   1
    25     1    22   1
    26     2    23   1
    27     3    24   1
    28     4    25   1
    29     5    26   1
    30     6    27   1
    31     7    28   1
    32     8    29   1
    33     9    30   1
    34    10    31   1
    35    11    32   1
    36    11    33   1
    37    12    34   1
    38    12    35   1
    39    13    36   1
    40    13    37   1
    41    14    38   1
    42    14    39   1
    43    15    40   1
    44    15    41   1
    45    19    42   1
    46    20    43   1
@<TRIPOS>SUBSTRUCTURE
     1  MOL      2

