@<TRIPOS>MOLECULE
3acw_ligand_047
    43    46
SMALL
GAST_HUCK
****
This file was generated by PARSER (from files_GN.cpp)

@<TRIPOS>ATOM
      1 OAA        62.6728    5.5013   60.0948 O.3         1 MOL      -0.4236
      2 CAB        69.8726    0.1907   61.8869 C.ar        1 MOL      -0.0563
      3 CAC        69.2069   -0.1120   60.6864 C.ar        1 MOL      -0.0552
      4 CAD        69.5108    1.3358   62.6153 C.ar        1 MOL      -0.0552
      5 CAE        68.1900    0.7365   60.2086 C.ar        1 MOL      -0.0454
      6 CAF        68.4901    2.1801   62.1394 C.ar        1 MOL      -0.0454
      7 CAG        65.5083    2.3047   60.0877 C.ar        1 MOL      -0.0261
      8 CAH        67.0272    4.1662   60.3004 C.ar        1 MOL      -0.0261
      9 CAI        64.5036    3.1858   59.6435 C.ar        1 MOL      -0.0390
     10 CAJ        66.0193    5.0378   59.8484 C.ar        1 MOL      -0.0390
     11 CAK        63.7384    5.1127   56.4659 C.3         1 MOL      -0.0152
     12 CAL        61.5221    5.7778   57.4767 C.3         1 MOL      -0.0152
     13 CAM        64.0351    6.6365   56.2538 C.3         1 MOL      -0.0331
     14 CAN        61.9010    7.2827   57.2952 C.3         1 MOL      -0.0331
     15 CAO        63.9306    7.0100   58.6739 C.3         1 MOL      -0.0283
     16 CAP        67.8139    1.9029   60.9225 C.ar        1 MOL       0.0022
     17 CAQ        66.7956    2.7783   60.4284 C.ar        1 MOL       0.0101
     18 CAR        64.7305    4.5784   59.4657 C.ar        1 MOL      -0.0233
     19 CAS        62.8241    4.9381   57.7224 C.3         1 MOL      -0.0252
     20 NAT        63.3906    7.4493   57.3424 N.4         1 MOL       0.2304
     21 CAU        63.5976    5.4843   58.9965 C.3         1 MOL       0.0922
     22 H1         62.4121    4.5691   60.2501 H           1 MOL       0.1945
     23 H2         70.6158   -0.4217   62.2302 H           1 MOL       0.0663
     24 H3         69.4693   -0.9458   60.1561 H           1 MOL       0.0633
     25 H4         69.9881    1.5528   63.4940 H           1 MOL       0.0633
     26 H5         67.7377    0.5034   59.3208 H           1 MOL       0.0672
     27 H6         68.2360    2.9968   62.7014 H           1 MOL       0.0672
     28 H7         65.2760    1.3127   60.1965 H           1 MOL       0.0700
     29 H8         67.9402    4.5590   60.5447 H           1 MOL       0.0700
     30 H9         63.5805    2.7858   59.4748 H           1 MOL       0.0838
     31 H10        66.2519    6.0258   59.8501 H           1 MOL       0.0838
     32 H11        64.6725    4.5609   56.6025 H           1 MOL       0.0312
     33 H12        63.2398    4.6905   55.5915 H           1 MOL       0.0312
     34 H13        61.0052    5.4108   56.5843 H           1 MOL       0.0312
     35 H14        60.8303    5.6637   58.3167 H           1 MOL       0.0312
     36 H15        65.1145    6.8095   56.2494 H           1 MOL       0.0814
     37 H16        63.6609    6.9700   55.2831 H           1 MOL       0.0814
     38 H17        61.4360    7.8879   58.0785 H           1 MOL       0.0814
     39 H18        61.5172    7.6524   56.3401 H           1 MOL       0.0814
     40 H19        63.5320    7.6679   59.4500 H           1 MOL       0.0725
     41 H20        64.9950    7.2179   58.6347 H           1 MOL       0.0725
     42 H21        62.5286    3.8930   57.8159 H           1 MOL       0.0225
     43 H22        63.6174    8.4353   57.1990 H           1 MOL       0.2025
@<TRIPOS>BOND
     1    21     1   1
     2     3     2  ar
     3     4     2  ar
     4     5     3  ar
     5     6     4  ar
     6    16     5  ar
     7    16     6  ar
     8     9     7  ar
     9     7    17  ar
    10    10     8  ar
    11     8    17  ar
    12    18     9  ar
    13    18    10  ar
    14    13    11   1
    15    11    19   1
    16    14    12   1
    17    12    19   1
    18    20    13   1
    19    20    14   1
    20    15    20   1
    21    21    15   1
    22    17    16   1
    23    18    21   1
    24    19    21   1
    25     1    22   1
    26     2    23   1
    27     3    24   1
    28     4    25   1
    29     5    26   1
    30     6    27   1
    31     7    28   1
    32     8    29   1
    33     9    30   1
    34    10    31   1
    35    11    32   1
    36    11    33   1
    37    12    34   1
    38    12    35   1
    39    13    36   1
    40    13    37   1
    41    14    38   1
    42    14    39   1
    43    15    40   1
    44    15    41   1
    45    19    42   1
    46    20    43   1
@<TRIPOS>SUBSTRUCTURE
     1  MOL      2

