@<TRIPOS>MOLECULE
3acw_ligand_001
    43    46
SMALL
GAST_HUCK
****
This file was generated by PARSER (from files_GN.cpp)

@<TRIPOS>ATOM
      1 OAA        61.6698    5.8052   59.0885 O.3         1 MOL      -0.4236
      2 CAB        56.3714   10.0658   53.1843 C.ar        1 MOL      -0.0563
      3 CAC        56.7485    8.7653   52.8092 C.ar        1 MOL      -0.0552
      4 CAD        56.9957   10.6838   54.2826 C.ar        1 MOL      -0.0552
      5 CAE        57.7556    8.0870   53.5252 C.ar        1 MOL      -0.0454
      6 CAF        57.9856    9.9970   55.0045 C.ar        1 MOL      -0.0454
      7 CAG        60.5849    8.6699   55.7867 C.ar        1 MOL      -0.0261
      8 CAH        59.2314    6.6640   55.7679 C.ar        1 MOL      -0.0261
      9 CAI        61.5564    8.0109   56.5620 C.ar        1 MOL      -0.0390
     10 CAJ        60.2063    6.0102   56.5440 C.ar        1 MOL      -0.0390
     11 CAK        64.6772    6.6103   56.9107 C.3         1 MOL      -0.0152
     12 CAL        64.5107    5.7828   59.2771 C.3         1 MOL      -0.0152
     13 CAM        64.9483    5.1306   56.4738 C.3         1 MOL      -0.0331
     14 CAN        64.6896    4.3105   58.7787 C.3         1 MOL      -0.0331
     15 CAO        62.7323    4.4677   57.2942 C.3         1 MOL      -0.0283
     16 CAP        58.3945    8.6923   54.6339 C.ar        1 MOL       0.0022
     17 CAQ        59.4039    8.0101   55.3765 C.ar        1 MOL       0.0101
     18 CAR        61.4031    6.6551   56.9508 C.ar        1 MOL      -0.0233
     19 CAS        63.7569    6.6137   58.1812 C.3         1 MOL      -0.0252
     20 NAT        64.2056    4.1768   57.3655 N.4         1 MOL       0.2304
     21 CAU        62.3752    5.9132   57.8417 C.3         1 MOL       0.0922
     22 H1         60.9137    5.2012   58.9268 H           1 MOL       0.1945
     23 H2         55.6436   10.5606   52.6630 H           1 MOL       0.0663
     24 H3         56.2878    8.3141   52.0149 H           1 MOL       0.0633
     25 H4         56.7152   11.6264   54.5641 H           1 MOL       0.0633
     26 H5         58.0251    7.1480   53.2225 H           1 MOL       0.0672
     27 H6         58.3950   10.4497   55.8228 H           1 MOL       0.0672
     28 H7         60.7478    9.6465   55.5273 H           1 MOL       0.0700
     29 H8         58.3807    6.1537   55.5111 H           1 MOL       0.0700
     30 H9         62.3730    8.5470   56.8460 H           1 MOL       0.0838
     31 H10        60.0194    5.0416   56.8207 H           1 MOL       0.0838
     32 H11        64.2098    7.1549   56.0888 H           1 MOL       0.0312
     33 H12        65.6226    7.1149   57.1330 H           1 MOL       0.0312
     34 H13        65.4894    6.2306   59.4751 H           1 MOL       0.0312
     35 H14        63.9572    5.7994   60.2193 H           1 MOL       0.0312
     36 H15        64.6388    4.9778   55.4373 H           1 MOL       0.0814
     37 H16        66.0198    4.9187   56.5125 H           1 MOL       0.0814
     38 H17        64.1338    3.6271   59.4257 H           1 MOL       0.0814
     39 H18        65.7413    4.0193   58.8385 H           1 MOL       0.0814
     40 H19        62.1888    3.7027   57.8554 H           1 MOL       0.0725
     41 H20        62.4221    4.3544   56.2503 H           1 MOL       0.0725
     42 H21        63.6160    7.6314   58.5564 H           1 MOL       0.0225
     43 H22        64.3712    3.2204   57.0447 H           1 MOL       0.2025
@<TRIPOS>BOND
     1    21     1   1
     2     3     2  ar
     3     4     2  ar
     4     5     3  ar
     5     6     4  ar
     6    16     5  ar
     7    16     6  ar
     8     9     7  ar
     9     7    17  ar
    10    10     8  ar
    11     8    17  ar
    12    18     9  ar
    13    18    10  ar
    14    13    11   1
    15    11    19   1
    16    14    12   1
    17    12    19   1
    18    20    13   1
    19    20    14   1
    20    15    20   1
    21    21    15   1
    22    17    16   1
    23    18    21   1
    24    19    21   1
    25     1    22   1
    26     2    23   1
    27     3    24   1
    28     4    25   1
    29     5    26   1
    30     6    27   1
    31     7    28   1
    32     8    29   1
    33     9    30   1
    34    10    31   1
    35    11    32   1
    36    11    33   1
    37    12    34   1
    38    12    35   1
    39    13    36   1
    40    13    37   1
    41    14    38   1
    42    14    39   1
    43    15    40   1
    44    15    41   1
    45    19    42   1
    46    20    43   1
@<TRIPOS>SUBSTRUCTURE
     1  MOL      2

