@<TRIPOS>MOLECULE
3acw_ligand_021
    43    46
SMALL
GAST_HUCK
****
This file was generated by PARSER (from files_GN.cpp)

@<TRIPOS>ATOM
      1 OAA        55.9626    6.4724   49.3821 O.3         1 MOL      -0.4236
      2 CAB        57.3204    3.5403   57.8334 C.ar        1 MOL      -0.0563
      3 CAC        56.1093    3.1238   57.2538 C.ar        1 MOL      -0.0552
      4 CAD        58.2749    4.2208   57.0543 C.ar        1 MOL      -0.0552
      5 CAE        55.8464    3.3893   55.8974 C.ar        1 MOL      -0.0454
      6 CAF        58.0157    4.4885   55.6967 C.ar        1 MOL      -0.0454
      7 CAG        55.3468    4.8040   53.2532 C.ar        1 MOL      -0.0261
      8 CAH        57.5516    3.9106   52.7996 C.ar        1 MOL      -0.0261
      9 CAI        55.1576    5.0267   51.8770 C.ar        1 MOL      -0.0390
     10 CAJ        57.3369    4.0949   51.4221 C.ar        1 MOL      -0.0390
     11 CAK        54.4587    3.0346   48.8161 C.3         1 MOL      -0.0152
     12 CAL        54.2483    5.1589   47.4937 C.3         1 MOL      -0.0152
     13 CAM        55.5849    2.5790   47.8304 C.3         1 MOL      -0.0331
     14 CAN        55.3971    4.6838   46.5425 C.3         1 MOL      -0.0331
     15 CAO        56.9879    4.5236   48.3919 C.3         1 MOL      -0.0283
     16 CAP        56.7963    4.0775   55.1104 C.ar        1 MOL       0.0022
     17 CAQ        56.5623    4.2759   53.7309 C.ar        1 MOL       0.0101
     18 CAR        56.1512    4.6970   50.9162 C.ar        1 MOL      -0.0233
     19 CAS        54.4947    4.5901   48.9357 C.3         1 MOL      -0.0252
     20 NAT        56.3310    3.7625   47.2747 N.4         1 MOL       0.2304
     21 CAU        55.9220    5.0377   49.4552 C.3         1 MOL       0.0922
     22 H1         55.3225    6.7976   50.0489 H           1 MOL       0.1945
     23 H2         57.5077    3.3503   58.8190 H           1 MOL       0.0663
     24 H3         55.4215    2.6185   57.8157 H           1 MOL       0.0633
     25 H4         59.1586    4.5176   57.4729 H           1 MOL       0.0633
     26 H5         54.9719    3.0566   55.4824 H           1 MOL       0.0672
     27 H6         58.7250    4.9762   55.1421 H           1 MOL       0.0672
     28 H7         54.5969    5.0520   53.9037 H           1 MOL       0.0700
     29 H8         58.4329    3.4982   53.1132 H           1 MOL       0.0700
     30 H9         54.2763    5.4566   51.5852 H           1 MOL       0.0838
     31 H10        58.0761    3.7842   50.7884 H           1 MOL       0.0838
     32 H11        54.6026    2.5800   49.7998 H           1 MOL       0.0312
     33 H12        53.4801    2.7111   48.4480 H           1 MOL       0.0312
     34 H13        53.2850    4.8101   47.1109 H           1 MOL       0.0312
     35 H14        54.2085    6.2507   47.5220 H           1 MOL       0.0312
     36 H15        55.1522    1.9997   47.0092 H           1 MOL       0.0814
     37 H16        56.2811    1.9210   48.3562 H           1 MOL       0.0814
     38 H17        55.9461    5.5503   46.1603 H           1 MOL       0.0814
     39 H18        54.9780    4.1740   45.6736 H           1 MOL       0.0814
     40 H19        57.5462    5.3634   47.9662 H           1 MOL       0.0725
     41 H20        57.7516    3.8768   48.8334 H           1 MOL       0.0725
     42 H21        53.6925    4.9334   49.5952 H           1 MOL       0.0225
     43 H22        57.0544    3.4118   46.6364 H           1 MOL       0.2025
@<TRIPOS>BOND
     1    21     1   1
     2     3     2  ar
     3     4     2  ar
     4     5     3  ar
     5     6     4  ar
     6    16     5  ar
     7    16     6  ar
     8     9     7  ar
     9     7    17  ar
    10    10     8  ar
    11     8    17  ar
    12    18     9  ar
    13    18    10  ar
    14    13    11   1
    15    11    19   1
    16    14    12   1
    17    12    19   1
    18    20    13   1
    19    20    14   1
    20    15    20   1
    21    21    15   1
    22    17    16   1
    23    18    21   1
    24    19    21   1
    25     1    22   1
    26     2    23   1
    27     3    24   1
    28     4    25   1
    29     5    26   1
    30     6    27   1
    31     7    28   1
    32     8    29   1
    33     9    30   1
    34    10    31   1
    35    11    32   1
    36    11    33   1
    37    12    34   1
    38    12    35   1
    39    13    36   1
    40    13    37   1
    41    14    38   1
    42    14    39   1
    43    15    40   1
    44    15    41   1
    45    19    42   1
    46    20    43   1
@<TRIPOS>SUBSTRUCTURE
     1  MOL      2

