@<TRIPOS>MOLECULE
3acw_ligand_049
    43    46
SMALL
GAST_HUCK
****
This file was generated by PARSER (from files_GN.cpp)

@<TRIPOS>ATOM
      1 OAA        58.4088   20.2866   51.0693 O.3         1 MOL      -0.4236
      2 CAB        56.9726   11.4118   52.3386 C.ar        1 MOL      -0.0563
      3 CAC        56.9804   12.1221   53.5511 C.ar        1 MOL      -0.0552
      4 CAD        57.0624   12.1065   51.1207 C.ar        1 MOL      -0.0552
      5 CAE        57.0663   13.5269   53.5432 C.ar        1 MOL      -0.0454
      6 CAF        57.1612   13.5103   51.1150 C.ar        1 MOL      -0.0454
      7 CAG        56.6041   16.4598   51.3463 C.ar        1 MOL      -0.0261
      8 CAH        58.0474   16.3571   53.2869 C.ar        1 MOL      -0.0261
      9 CAI        56.7274   17.8604   51.3354 C.ar        1 MOL      -0.0390
     10 CAJ        58.1554   17.7587   53.2785 C.ar        1 MOL      -0.0390
     11 CAK        57.3768   20.7320   54.6986 C.3         1 MOL      -0.0152
     12 CAL        58.4464   22.3365   53.0929 C.3         1 MOL      -0.0152
     13 CAM        55.9835   21.3634   54.3617 C.3         1 MOL      -0.0331
     14 CAN        57.0354   22.9522   52.8080 C.3         1 MOL      -0.0331
     15 CAO        56.1969   20.7858   52.0042 C.3         1 MOL      -0.0283
     16 CAP        57.1600   14.2493   52.3259 C.ar        1 MOL       0.0022
     17 CAQ        57.2619   15.6754   52.3232 C.ar        1 MOL       0.0101
     18 CAR        57.4814   18.5549   52.3146 C.ar        1 MOL      -0.0233
     19 CAS        58.2948   20.8131   53.4340 C.3         1 MOL      -0.0252
     20 NAT        55.9672   21.9124   52.9657 N.4         1 MOL       0.2304
     21 CAU        57.5930   20.0627   52.2273 C.3         1 MOL       0.0922
     22 H1         57.8187   20.1836   50.2910 H           1 MOL       0.1945
     23 H2         56.9046   10.3926   52.3425 H           1 MOL       0.0663
     24 H3         56.9224   11.6178   54.4395 H           1 MOL       0.0633
     25 H4         57.0608   11.5897   50.2365 H           1 MOL       0.0633
     26 H5         57.0417   14.0157   54.4398 H           1 MOL       0.0672
     27 H6         57.2516   13.9852   50.2133 H           1 MOL       0.0672
     28 H7         56.0200   16.0205   50.6293 H           1 MOL       0.0700
     29 H8         58.5773   15.8301   53.9839 H           1 MOL       0.0700
     30 H9         56.2497   18.3774   50.5926 H           1 MOL       0.0838
     31 H10        58.7573   18.1829   53.9857 H           1 MOL       0.0838
     32 H11        57.2385   19.6997   55.0237 H           1 MOL       0.0312
     33 H12        57.8433   21.2630   55.5330 H           1 MOL       0.0312
     34 H13        58.9229   22.8650   53.9283 H           1 MOL       0.0312
     35 H14        59.0973   22.4704   52.2215 H           1 MOL       0.0312
     36 H15        55.7375   22.1559   55.0674 H           1 MOL       0.0814
     37 H16        55.2046   20.6056   54.4603 H           1 MOL       0.0814
     38 H17        57.0133   23.3651   51.8001 H           1 MOL       0.0814
     39 H18        56.8426   23.7836   53.4919 H           1 MOL       0.0814
     40 H19        56.1191   21.1796   50.9871 H           1 MOL       0.0725
     41 H20        55.3681   20.0859   52.1175 H           1 MOL       0.0725
     42 H21        59.2869   20.4037   53.6434 H           1 MOL       0.0225
     43 H22        55.0455   22.3184   52.7689 H           1 MOL       0.2025
@<TRIPOS>BOND
     1    21     1   1
     2     3     2  ar
     3     4     2  ar
     4     5     3  ar
     5     6     4  ar
     6    16     5  ar
     7    16     6  ar
     8     9     7  ar
     9     7    17  ar
    10    10     8  ar
    11     8    17  ar
    12    18     9  ar
    13    18    10  ar
    14    13    11   1
    15    11    19   1
    16    14    12   1
    17    12    19   1
    18    20    13   1
    19    20    14   1
    20    15    20   1
    21    21    15   1
    22    17    16   1
    23    18    21   1
    24    19    21   1
    25     1    22   1
    26     2    23   1
    27     3    24   1
    28     4    25   1
    29     5    26   1
    30     6    27   1
    31     7    28   1
    32     8    29   1
    33     9    30   1
    34    10    31   1
    35    11    32   1
    36    11    33   1
    37    12    34   1
    38    12    35   1
    39    13    36   1
    40    13    37   1
    41    14    38   1
    42    14    39   1
    43    15    40   1
    44    15    41   1
    45    19    42   1
    46    20    43   1
@<TRIPOS>SUBSTRUCTURE
     1  MOL      2

