@<TRIPOS>MOLECULE
3acw_ligand_015
    43    46
SMALL
GAST_HUCK
****
This file was generated by PARSER (from files_GN.cpp)

@<TRIPOS>ATOM
      1 OAA        51.6524    5.0360   50.5048 O.3         1 MOL      -0.4236
      2 CAB        58.4682    9.4220   54.6847 C.ar        1 MOL      -0.0563
      3 CAC        58.6740    8.0447   54.4947 C.ar        1 MOL      -0.0552
      4 CAD        57.3495   10.0443   54.1027 C.ar        1 MOL      -0.0552
      5 CAE        57.7644    7.2914   53.7262 C.ar        1 MOL      -0.0454
      6 CAF        56.4427    9.2902   53.3413 C.ar        1 MOL      -0.0454
      7 CAG        55.3355    5.8182   52.6674 C.ar        1 MOL      -0.0261
      8 CAH        55.1130    7.7025   51.1854 C.ar        1 MOL      -0.0261
      9 CAI        54.4423    5.0826   51.8600 C.ar        1 MOL      -0.0390
     10 CAJ        54.1976    6.9780   50.4066 C.ar        1 MOL      -0.0390
     11 CAK        54.3606    2.9853   48.8135 C.3         1 MOL      -0.0152
     12 CAL        51.8842    2.6007   48.9988 C.3         1 MOL      -0.0152
     13 CAM        54.1044    3.5466   47.3738 C.3         1 MOL      -0.0331
     14 CAN        51.6611    3.2576   47.5984 C.3         1 MOL      -0.0331
     15 CAO        52.7305    5.3532   48.3090 C.3         1 MOL      -0.0283
     16 CAP        56.6275    7.8961   53.1332 C.ar        1 MOL       0.0022
     17 CAQ        55.7039    7.1402   52.3411 C.ar        1 MOL       0.0101
     18 CAR        53.8896    5.6154   50.6631 C.ar        1 MOL      -0.0233
     19 CAS        53.1103    3.2793   49.7070 C.3         1 MOL      -0.0252
     20 NAT        52.7649    4.2314   47.3063 N.4         1 MOL       0.2304
     21 CAU        52.8916    4.8477   49.8117 C.3         1 MOL       0.0922
     22 H1         51.5116    6.0044   50.5441 H           1 MOL       0.1945
     23 H2         59.1231    9.9674   55.2454 H           1 MOL       0.0663
     24 H3         59.4926    7.5952   54.9137 H           1 MOL       0.0633
     25 H4         57.1945   11.0469   54.2409 H           1 MOL       0.0633
     26 H5         57.9607    6.2957   53.5884 H           1 MOL       0.0672
     27 H6         55.6305    9.7709   52.9471 H           1 MOL       0.0672
     28 H7         55.6928    5.3723   53.5155 H           1 MOL       0.0700
     29 H8         55.3492    8.6532   50.8900 H           1 MOL       0.0700
     30 H9         54.1891    4.1502   52.1782 H           1 MOL       0.0838
     31 H10        53.7532    7.4874   49.6417 H           1 MOL       0.0838
     32 H11        55.2494    3.4515   49.2440 H           1 MOL       0.0312
     33 H12        54.5461    1.9065   48.7669 H           1 MOL       0.0312
     34 H13        52.0698    1.5294   48.8762 H           1 MOL       0.0312
     35 H14        50.9848    2.7013   49.6095 H           1 MOL       0.0312
     36 H15        54.1368    2.7300   46.6469 H           1 MOL       0.0814
     37 H16        54.8927    4.2537   47.0960 H           1 MOL       0.0814
     38 H17        50.6957    3.7714   47.5740 H           1 MOL       0.0814
     39 H18        51.6282    2.4917   46.8190 H           1 MOL       0.0814
     40 H19        51.7942    5.9055   48.1928 H           1 MOL       0.0725
     41 H20        53.5247    6.0460   48.0230 H           1 MOL       0.0725
     42 H21        53.2296    2.8030   50.6787 H           1 MOL       0.0225
     43 H22        52.6242    4.6320   46.3714 H           1 MOL       0.2025
@<TRIPOS>BOND
     1    21     1   1
     2     3     2  ar
     3     4     2  ar
     4     5     3  ar
     5     6     4  ar
     6    16     5  ar
     7    16     6  ar
     8     9     7  ar
     9     7    17  ar
    10    10     8  ar
    11     8    17  ar
    12    18     9  ar
    13    18    10  ar
    14    13    11   1
    15    11    19   1
    16    14    12   1
    17    12    19   1
    18    20    13   1
    19    20    14   1
    20    15    20   1
    21    21    15   1
    22    17    16   1
    23    18    21   1
    24    19    21   1
    25     1    22   1
    26     2    23   1
    27     3    24   1
    28     4    25   1
    29     5    26   1
    30     6    27   1
    31     7    28   1
    32     8    29   1
    33     9    30   1
    34    10    31   1
    35    11    32   1
    36    11    33   1
    37    12    34   1
    38    12    35   1
    39    13    36   1
    40    13    37   1
    41    14    38   1
    42    14    39   1
    43    15    40   1
    44    15    41   1
    45    19    42   1
    46    20    43   1
@<TRIPOS>SUBSTRUCTURE
     1  MOL      2

