@<TRIPOS>MOLECULE
3acw_ligand_032
    43    46
SMALL
GAST_HUCK
****
This file was generated by PARSER (from files_GN.cpp)

@<TRIPOS>ATOM
      1 OAA        50.3049    4.2683   52.4574 O.3         1 MOL      -0.4236
      2 CAB        58.1913    8.5883   53.3604 C.ar        1 MOL      -0.0563
      3 CAC        58.3227    7.2093   53.6133 C.ar        1 MOL      -0.0552
      4 CAD        56.9674    9.0978   52.8988 C.ar        1 MOL      -0.0552
      5 CAE        57.2318    6.3482   53.4002 C.ar        1 MOL      -0.0454
      6 CAF        55.8765    8.2381   52.6915 C.ar        1 MOL      -0.0454
      7 CAG        53.8856    6.2250   51.7485 C.ar        1 MOL      -0.0261
      8 CAH        54.6839    4.8146   53.5450 C.ar        1 MOL      -0.0261
      9 CAI        52.7796    5.3736   51.5791 C.ar        1 MOL      -0.0390
     10 CAJ        53.5925    3.9494   53.3527 C.ar        1 MOL      -0.0390
     11 CAK        52.1942    0.9650   52.6376 C.3         1 MOL      -0.0152
     12 CAL        49.7508    1.4913   52.8453 C.3         1 MOL      -0.0152
     13 CAM        51.9355    0.5777   51.1419 C.3         1 MOL      -0.0331
     14 CAN        49.5527    1.1736   51.3265 C.3         1 MOL      -0.0331
     15 CAO        51.2063    2.8700   50.6555 C.3         1 MOL      -0.0283
     16 CAP        55.9808    6.8421   52.9380 C.ar        1 MOL       0.0022
     17 CAQ        54.8616    5.9683   52.7420 C.ar        1 MOL       0.0101
     18 CAR        52.6114    4.2001   52.3583 C.ar        1 MOL      -0.0233
     19 CAS        51.1839    2.0842   53.0708 C.3         1 MOL      -0.0252
     20 NAT        50.8285    1.4195   50.5715 N.4         1 MOL       0.2304
     21 CAU        51.3746    3.3606   52.1540 C.3         1 MOL       0.0922
     22 H1         50.2133    4.2662   53.4350 H           1 MOL       0.1945
     23 H2         58.9842    9.2118   53.5157 H           1 MOL       0.0663
     24 H3         59.2130    6.8306   53.9423 H           1 MOL       0.0633
     25 H4         56.8692   10.1009   52.7204 H           1 MOL       0.0633
     26 H5         57.3671    5.3471   53.5695 H           1 MOL       0.0672
     27 H6         54.9924    8.6507   52.3817 H           1 MOL       0.0672
     28 H7         53.9705    7.0348   51.1301 H           1 MOL       0.0700
     29 H8         55.3352    4.5998   54.3042 H           1 MOL       0.0700
     30 H9         52.0922    5.6242   50.8669 H           1 MOL       0.0838
     31 H10        53.5133    3.1529   53.9818 H           1 MOL       0.0838
     32 H11        53.2248    1.3011   52.7550 H           1 MOL       0.0312
     33 H12        52.0730    0.0837   53.2753 H           1 MOL       0.0312
     34 H13        49.6289    0.5748   53.4345 H           1 MOL       0.0312
     35 H14        48.9866    2.1947   53.1871 H           1 MOL       0.0312
     36 H15        51.6691   -0.4803   51.0682 H           1 MOL       0.0814
     37 H16        52.8481    0.7144   50.5532 H           1 MOL       0.0814
     38 H17        48.7543    1.7974   50.9130 H           1 MOL       0.0814
     39 H18        49.2425    0.1322   51.1954 H           1 MOL       0.0814
     40 H19        50.4419    3.4633   50.1459 H           1 MOL       0.0725
     41 H20        52.1285    3.0086   50.0821 H           1 MOL       0.0725
     42 H21        51.3014    2.3239   54.1283 H           1 MOL       0.0225
     43 H22        50.6906    1.1656   49.5894 H           1 MOL       0.2025
@<TRIPOS>BOND
     1    21     1   1
     2     3     2  ar
     3     4     2  ar
     4     5     3  ar
     5     6     4  ar
     6    16     5  ar
     7    16     6  ar
     8     9     7  ar
     9     7    17  ar
    10    10     8  ar
    11     8    17  ar
    12    18     9  ar
    13    18    10  ar
    14    13    11   1
    15    11    19   1
    16    14    12   1
    17    12    19   1
    18    20    13   1
    19    20    14   1
    20    15    20   1
    21    21    15   1
    22    17    16   1
    23    18    21   1
    24    19    21   1
    25     1    22   1
    26     2    23   1
    27     3    24   1
    28     4    25   1
    29     5    26   1
    30     6    27   1
    31     7    28   1
    32     8    29   1
    33     9    30   1
    34    10    31   1
    35    11    32   1
    36    11    33   1
    37    12    34   1
    38    12    35   1
    39    13    36   1
    40    13    37   1
    41    14    38   1
    42    14    39   1
    43    15    40   1
    44    15    41   1
    45    19    42   1
    46    20    43   1
@<TRIPOS>SUBSTRUCTURE
     1  MOL      2

