@<TRIPOS>MOLECULE
3acw_ligand_070
    43    46
SMALL
GAST_HUCK
****
This file was generated by PARSER (from files_GN.cpp)

@<TRIPOS>ATOM
      1 OAA        57.6203   11.1080   53.7501 O.3         1 MOL      -0.4236
      2 CAB        52.0458   17.2378   57.6576 C.ar        1 MOL      -0.0563
      3 CAC        53.4404   17.2939   57.7976 C.ar        1 MOL      -0.0552
      4 CAD        51.4800   16.3648   56.7165 C.ar        1 MOL      -0.0552
      5 CAE        54.2666   16.4710   57.0072 C.ar        1 MOL      -0.0454
      6 CAF        52.3092   15.5386   55.9326 C.ar        1 MOL      -0.0454
      7 CAG        54.0661   13.4706   54.7602 C.ar        1 MOL      -0.0261
      8 CAH        55.9065   15.0018   55.0081 C.ar        1 MOL      -0.0261
      9 CAI        54.8797   12.6179   53.9788 C.ar        1 MOL      -0.0390
     10 CAJ        56.7194   14.1424   54.2388 C.ar        1 MOL      -0.0390
     11 CAK        57.6702   13.6054   50.8600 C.3         1 MOL      -0.0152
     12 CAL        59.2049   11.6673   51.3811 C.3         1 MOL      -0.0152
     13 CAM        56.9059   12.6704   49.8700 C.3         1 MOL      -0.0331
     14 CAN        58.3608   10.7622   50.4335 C.3         1 MOL      -0.0331
     15 CAO        56.2924   11.1864   51.7164 C.3         1 MOL      -0.0283
     16 CAP        53.7223   15.5673   56.0582 C.ar        1 MOL       0.0022
     17 CAQ        54.5469   14.7042   55.2722 C.ar        1 MOL       0.0101
     18 CAR        56.2159   12.9606   53.6414 C.ar        1 MOL      -0.0233
     19 CAS        58.2717   12.7479   52.0242 C.3         1 MOL      -0.0252
     20 NAT        56.9421   11.2562   50.3641 N.4         1 MOL       0.2304
     21 CAU        57.0818   12.0398   52.8021 C.3         1 MOL       0.0922
     22 H1         57.4474   11.4853   54.6416 H           1 MOL       0.1945
     23 H2         51.4493   17.8316   58.2449 H           1 MOL       0.0663
     24 H3         53.8584   17.9404   58.4773 H           1 MOL       0.0633
     25 H4         50.4618   16.3135   56.6148 H           1 MOL       0.0633
     26 H5         55.2776   16.5194   57.1605 H           1 MOL       0.0672
     27 H6         51.8465   14.9137   55.2613 H           1 MOL       0.0672
     28 H7         53.1156   13.1600   54.9732 H           1 MOL       0.0700
     29 H8         56.3338   15.8659   55.3800 H           1 MOL       0.0700
     30 H9         54.4938   11.7185   53.6545 H           1 MOL       0.0838
     31 H10        57.7024   14.4054   54.1618 H           1 MOL       0.0838
     32 H11        56.9937   14.3627   51.2629 H           1 MOL       0.0312
     33 H12        58.4609   14.1347   50.3333 H           1 MOL       0.0312
     34 H13        60.0073   12.1507   50.8195 H           1 MOL       0.0312
     35 H14        59.6757   11.0648   52.1607 H           1 MOL       0.0312
     36 H15        57.3458   12.7278   48.8725 H           1 MOL       0.0814
     37 H16        55.8688   12.9983   49.7749 H           1 MOL       0.0814
     38 H17        58.3827    9.7400   50.8041 H           1 MOL       0.0814
     39 H18        58.7943   10.7474   49.4299 H           1 MOL       0.0814
     40 H19        56.2318   10.1370   52.0197 H           1 MOL       0.0725
     41 H20        55.2621   11.5249   51.5974 H           1 MOL       0.0725
     42 H21        58.8955   13.3604   52.6613 H           1 MOL       0.0225
     43 H22        56.4201   10.6645   49.7114 H           1 MOL       0.2025
@<TRIPOS>BOND
     1    21     1   1
     2     3     2  ar
     3     4     2  ar
     4     5     3  ar
     5     6     4  ar
     6    16     5  ar
     7    16     6  ar
     8     9     7  ar
     9     7    17  ar
    10    10     8  ar
    11     8    17  ar
    12    18     9  ar
    13    18    10  ar
    14    13    11   1
    15    11    19   1
    16    14    12   1
    17    12    19   1
    18    20    13   1
    19    20    14   1
    20    15    20   1
    21    21    15   1
    22    17    16   1
    23    18    21   1
    24    19    21   1
    25     1    22   1
    26     2    23   1
    27     3    24   1
    28     4    25   1
    29     5    26   1
    30     6    27   1
    31     7    28   1
    32     8    29   1
    33     9    30   1
    34    10    31   1
    35    11    32   1
    36    11    33   1
    37    12    34   1
    38    12    35   1
    39    13    36   1
    40    13    37   1
    41    14    38   1
    42    14    39   1
    43    15    40   1
    44    15    41   1
    45    19    42   1
    46    20    43   1
@<TRIPOS>SUBSTRUCTURE
     1  MOL      2

