@<TRIPOS>MOLECULE
3acw_ligand_039
    43    46
SMALL
GAST_HUCK
****
This file was generated by PARSER (from files_GN.cpp)

@<TRIPOS>ATOM
      1 OAA        58.0489   12.1524   52.8256 O.3         1 MOL      -0.4236
      2 CAB        56.7599   20.2088   57.0978 C.ar        1 MOL      -0.0563
      3 CAC        56.4262   19.0408   57.8070 C.ar        1 MOL      -0.0552
      4 CAD        57.1005   20.1301   55.7352 C.ar        1 MOL      -0.0552
      5 CAE        56.4051   17.7968   57.1481 C.ar        1 MOL      -0.0454
      6 CAF        57.0944   18.8845   55.0806 C.ar        1 MOL      -0.0454
      7 CAG        55.5603   15.6345   55.1242 C.ar        1 MOL      -0.0261
      8 CAH        57.8274   16.0084   54.3693 C.ar        1 MOL      -0.0261
      9 CAI        55.5430   14.3997   54.4421 C.ar        1 MOL      -0.0390
     10 CAJ        57.8046   14.7720   53.6922 C.ar        1 MOL      -0.0390
     11 CAK        54.4039   12.5575   51.8117 C.3         1 MOL      -0.0152
     12 CAL        56.2662   11.1481   50.9433 C.3         1 MOL      -0.0152
     13 CAM        53.9477   11.3414   52.6893 C.3         1 MOL      -0.0331
     14 CAN        55.8466    9.9785   51.8982 C.3         1 MOL      -0.0331
     15 CAO        56.0762   11.3662   53.9209 C.3         1 MOL      -0.0283
     16 CAP        56.7384   17.7033   55.7759 C.ar        1 MOL       0.0022
     17 CAQ        56.7101   16.4547   55.1080 C.ar        1 MOL       0.0101
     18 CAR        56.6737   13.9103   53.7309 C.ar        1 MOL      -0.0233
     19 CAS        55.9647   12.5183   51.6468 C.3         1 MOL      -0.0252
     20 NAT        55.1349   10.5179   53.1073 N.4         1 MOL       0.2304
     21 CAU        56.6876   12.5492   53.0521 C.3         1 MOL       0.0922
     22 H1         58.3826   12.6997   52.0904 H           1 MOL       0.1945
     23 H2         56.7803   21.1086   57.5823 H           1 MOL       0.0663
     24 H3         56.2135   19.0968   58.8049 H           1 MOL       0.0633
     25 H4         57.3582   20.9767   55.2217 H           1 MOL       0.0633
     26 H5         56.1588   16.9611   57.6842 H           1 MOL       0.0672
     27 H6         57.3291   18.8546   54.0848 H           1 MOL       0.0672
     28 H7         54.7143   15.9416   55.6163 H           1 MOL       0.0700
     29 H8         58.6735   16.5863   54.3164 H           1 MOL       0.0700
     30 H9         54.6832   13.8565   54.4930 H           1 MOL       0.0838
     31 H10        58.6395   14.5239   53.1621 H           1 MOL       0.0838
     32 H11        54.0842   13.5015   52.2557 H           1 MOL       0.0312
     33 H12        53.9259   12.5037   50.8267 H           1 MOL       0.0312
     34 H13        55.7078   11.0816   50.0050 H           1 MOL       0.0312
     35 H14        57.3245   11.0671   50.6825 H           1 MOL       0.0312
     36 H15        53.2474   10.7148   52.1283 H           1 MOL       0.0814
     37 H16        53.4108   11.6950   53.5721 H           1 MOL       0.0814
     38 H17        56.7303    9.4113   52.2075 H           1 MOL       0.0814
     39 H18        55.1936    9.2802   51.3671 H           1 MOL       0.0814
     40 H19        56.8650   10.7202   54.3303 H           1 MOL       0.0725
     41 H20        55.5379   11.7323   54.7992 H           1 MOL       0.0725
     42 H21        56.3058   13.3409   51.0140 H           1 MOL       0.0225
     43 H22        54.8123    9.7366   53.6829 H           1 MOL       0.2025
@<TRIPOS>BOND
     1    21     1   1
     2     3     2  ar
     3     4     2  ar
     4     5     3  ar
     5     6     4  ar
     6    16     5  ar
     7    16     6  ar
     8     9     7  ar
     9     7    17  ar
    10    10     8  ar
    11     8    17  ar
    12    18     9  ar
    13    18    10  ar
    14    13    11   1
    15    11    19   1
    16    14    12   1
    17    12    19   1
    18    20    13   1
    19    20    14   1
    20    15    20   1
    21    21    15   1
    22    17    16   1
    23    18    21   1
    24    19    21   1
    25     1    22   1
    26     2    23   1
    27     3    24   1
    28     4    25   1
    29     5    26   1
    30     6    27   1
    31     7    28   1
    32     8    29   1
    33     9    30   1
    34    10    31   1
    35    11    32   1
    36    11    33   1
    37    12    34   1
    38    12    35   1
    39    13    36   1
    40    13    37   1
    41    14    38   1
    42    14    39   1
    43    15    40   1
    44    15    41   1
    45    19    42   1
    46    20    43   1
@<TRIPOS>SUBSTRUCTURE
     1  MOL      2

