@<TRIPOS>MOLECULE
3acw_ligand_060
    43    46
SMALL
GAST_HUCK
****
This file was generated by PARSER (from files_GN.cpp)

@<TRIPOS>ATOM
      1 OAA        55.8281    5.9135   49.2259 O.3         1 MOL      -0.4236
      2 CAB        54.7194   14.3210   52.3337 C.ar        1 MOL      -0.0563
      3 CAC        55.3379   13.9448   51.1288 C.ar        1 MOL      -0.0552
      4 CAD        54.0378   13.3611   53.1028 C.ar        1 MOL      -0.0552
      5 CAE        55.2926   12.6046   50.7035 C.ar        1 MOL      -0.0454
      6 CAF        53.9950   12.0182   52.6791 C.ar        1 MOL      -0.0454
      7 CAG        53.9632    9.9523   49.8010 C.ar        1 MOL      -0.0261
      8 CAH        55.1758    9.2395   51.7736 C.ar        1 MOL      -0.0261
      9 CAI        53.9201    8.6218   49.3505 C.ar        1 MOL      -0.0390
     10 CAJ        55.1366    7.9103   51.3083 C.ar        1 MOL      -0.0390
     11 CAK        52.0707    5.8380   48.7822 C.3         1 MOL      -0.0152
     12 CAL        53.8509    4.2607   47.9582 C.3         1 MOL      -0.0152
     13 CAM        51.7769    4.8233   49.9373 C.3         1 MOL      -0.0331
     14 CAN        53.5535    3.3094   49.1629 C.3         1 MOL      -0.0331
     15 CAO        54.0645    5.0853   50.7878 C.3         1 MOL      -0.0283
     16 CAP        54.6258   11.6238   51.4752 C.ar        1 MOL       0.0022
     17 CAQ        54.5734   10.2768   51.0299 C.ar        1 MOL       0.0101
     18 CAR        54.4691    7.5539   50.1062 C.ar        1 MOL      -0.0233
     19 CAS        53.5850    5.7454   48.3889 C.3         1 MOL      -0.0252
     20 NAT        53.0311    4.0953   50.3285 N.4         1 MOL       0.2304
     21 CAU        54.4737    6.1114   49.6457 C.3         1 MOL       0.0922
     22 H1         56.2689    5.3776   49.9193 H           1 MOL       0.1945
     23 H2         54.7581   15.2938   52.6448 H           1 MOL       0.0663
     24 H3         55.8193   14.6462   50.5621 H           1 MOL       0.0633
     25 H4         53.5684   13.6400   53.9676 H           1 MOL       0.0633
     26 H5         55.7598   12.3477   49.8308 H           1 MOL       0.0672
     27 H6         53.4826   11.3359   53.2444 H           1 MOL       0.0672
     28 H7         53.5520   10.6845   49.2181 H           1 MOL       0.0700
     29 H8         55.6661    9.4477   52.6505 H           1 MOL       0.0700
     30 H9         53.4866    8.4586   48.4464 H           1 MOL       0.0838
     31 H10        55.6068    7.1932   51.8683 H           1 MOL       0.0838
     32 H11        51.8134    6.8468   49.1080 H           1 MOL       0.0312
     33 H12        51.4470    5.6180   47.9125 H           1 MOL       0.0312
     34 H13        53.2105    4.0033   47.1103 H           1 MOL       0.0312
     35 H14        54.8854    4.1384   47.6298 H           1 MOL       0.0312
     36 H15        51.0139    4.1083   49.6178 H           1 MOL       0.0814
     37 H16        51.3704    5.3475   50.8075 H           1 MOL       0.0814
     38 H17        54.4611    2.7743   49.4559 H           1 MOL       0.0814
     39 H18        52.8228    2.5504   48.8697 H           1 MOL       0.0814
     40 H19        54.9386    4.5377   51.1451 H           1 MOL       0.0725
     41 H20        53.6611    5.6022   51.6637 H           1 MOL       0.0725
     42 H21        53.8088    6.3935   47.5393 H           1 MOL       0.0225
     43 H22        52.8186    3.4526   51.0935 H           1 MOL       0.2025
@<TRIPOS>BOND
     1    21     1   1
     2     3     2  ar
     3     4     2  ar
     4     5     3  ar
     5     6     4  ar
     6    16     5  ar
     7    16     6  ar
     8     9     7  ar
     9     7    17  ar
    10    10     8  ar
    11     8    17  ar
    12    18     9  ar
    13    18    10  ar
    14    13    11   1
    15    11    19   1
    16    14    12   1
    17    12    19   1
    18    20    13   1
    19    20    14   1
    20    15    20   1
    21    21    15   1
    22    17    16   1
    23    18    21   1
    24    19    21   1
    25     1    22   1
    26     2    23   1
    27     3    24   1
    28     4    25   1
    29     5    26   1
    30     6    27   1
    31     7    28   1
    32     8    29   1
    33     9    30   1
    34    10    31   1
    35    11    32   1
    36    11    33   1
    37    12    34   1
    38    12    35   1
    39    13    36   1
    40    13    37   1
    41    14    38   1
    42    14    39   1
    43    15    40   1
    44    15    41   1
    45    19    42   1
    46    20    43   1
@<TRIPOS>SUBSTRUCTURE
     1  MOL      2

