@<TRIPOS>MOLECULE
3acw_ligand_036
    43    46
SMALL
GAST_HUCK
****
This file was generated by PARSER (from files_GN.cpp)

@<TRIPOS>ATOM
      1 OAA        51.9661    5.0852   50.0138 O.3         1 MOL      -0.4236
      2 CAB        53.9624   12.7573   54.2808 C.ar        1 MOL      -0.0563
      3 CAC        55.0432   11.8576   54.2692 C.ar        1 MOL      -0.0552
      4 CAD        52.7890   12.4521   53.5718 C.ar        1 MOL      -0.0552
      5 CAE        54.9490   10.6486   53.5449 C.ar        1 MOL      -0.0454
      6 CAF        52.6947   11.2540   52.8406 C.ar        1 MOL      -0.0454
      7 CAG        53.8261    7.9058   52.7044 C.ar        1 MOL      -0.0261
      8 CAH        53.4412    9.1889   50.6851 C.ar        1 MOL      -0.0261
      9 CAI        53.7321    6.7151   51.9567 C.ar        1 MOL      -0.0390
     10 CAJ        53.3418    7.9950   49.9476 C.ar        1 MOL      -0.0390
     11 CAK        55.6940    4.4350   49.7883 C.3         1 MOL      -0.0152
     12 CAL        53.7287    2.9166   49.3385 C.3         1 MOL      -0.0152
     13 CAM        55.8082    4.6626   48.2459 C.3         1 MOL      -0.0331
     14 CAN        53.8614    3.2133   47.8115 C.3         1 MOL      -0.0331
     15 CAO        53.5399    5.6217   48.1950 C.3         1 MOL      -0.0283
     16 CAP        53.7777   10.3453   52.8192 C.ar        1 MOL       0.0022
     17 CAQ        53.6820    9.1505   52.0746 C.ar        1 MOL       0.0101
     18 CAR        53.5234    6.7225   50.5569 C.ar        1 MOL      -0.0233
     19 CAS        54.1926    4.1775   50.1637 C.3         1 MOL      -0.0252
     20 NAT        54.4488    4.5794   47.6050 N.4         1 MOL       0.2304
     21 CAU        53.3282    5.4452   49.7573 C.3         1 MOL       0.0922
     22 H1         51.4895    5.9177   50.2557 H           1 MOL       0.1945
     23 H2         54.0333   13.6329   54.7948 H           1 MOL       0.0663
     24 H3         55.9061   12.0836   54.7780 H           1 MOL       0.0633
     25 H4         51.9933   13.1018   53.5841 H           1 MOL       0.0633
     26 H5         55.7524   10.0143   53.5422 H           1 MOL       0.0672
     27 H6         51.8319   11.0472   52.3302 H           1 MOL       0.0672
     28 H7         53.9676    7.8435   53.7147 H           1 MOL       0.0700
     29 H8         53.3343   10.0893   50.2005 H           1 MOL       0.0700
     30 H9         53.7928    5.8373   52.4791 H           1 MOL       0.0838
     31 H10        53.1214    8.0787   48.9522 H           1 MOL       0.0838
     32 H11        56.0752    5.3084   50.3237 H           1 MOL       0.0312
     33 H12        56.3062    3.5791   50.0876 H           1 MOL       0.0312
     34 H13        54.3420    2.0506   49.6068 H           1 MOL       0.0312
     35 H14        52.6944    2.6655   49.5812 H           1 MOL       0.0312
     36 H15        56.4740    3.9148   47.8017 H           1 MOL       0.0814
     37 H16        56.2519    5.6393   48.0394 H           1 MOL       0.0814
     38 H17        52.8819    3.1593   47.3289 H           1 MOL       0.0814
     39 H18        54.4984    2.4586   47.3321 H           1 MOL       0.0814
     40 H19        52.5754    5.5878   47.6822 H           1 MOL       0.0725
     41 H20        53.9921    6.5863   47.9461 H           1 MOL       0.0725
     42 H21        54.0997    3.9297   51.2233 H           1 MOL       0.0225
     43 H22        54.5479    4.7494   46.5967 H           1 MOL       0.2025
@<TRIPOS>BOND
     1    21     1   1
     2     3     2  ar
     3     4     2  ar
     4     5     3  ar
     5     6     4  ar
     6    16     5  ar
     7    16     6  ar
     8     9     7  ar
     9     7    17  ar
    10    10     8  ar
    11     8    17  ar
    12    18     9  ar
    13    18    10  ar
    14    13    11   1
    15    11    19   1
    16    14    12   1
    17    12    19   1
    18    20    13   1
    19    20    14   1
    20    15    20   1
    21    21    15   1
    22    17    16   1
    23    18    21   1
    24    19    21   1
    25     1    22   1
    26     2    23   1
    27     3    24   1
    28     4    25   1
    29     5    26   1
    30     6    27   1
    31     7    28   1
    32     8    29   1
    33     9    30   1
    34    10    31   1
    35    11    32   1
    36    11    33   1
    37    12    34   1
    38    12    35   1
    39    13    36   1
    40    13    37   1
    41    14    38   1
    42    14    39   1
    43    15    40   1
    44    15    41   1
    45    19    42   1
    46    20    43   1
@<TRIPOS>SUBSTRUCTURE
     1  MOL      2

