@<TRIPOS>MOLECULE
3acw_ligand_025
    43    46
SMALL
GAST_HUCK
****
This file was generated by PARSER (from files_GN.cpp)

@<TRIPOS>ATOM
      1 OAA        56.2532    6.1320   48.8122 O.3         1 MOL      -0.4236
      2 CAB        52.0153   11.9950   54.3516 C.ar        1 MOL      -0.0563
      3 CAC        51.3285   11.6469   53.1756 C.ar        1 MOL      -0.0552
      4 CAD        53.1921   11.3144   54.7036 C.ar        1 MOL      -0.0552
      5 CAE        51.8102   10.6035   52.3640 C.ar        1 MOL      -0.0454
      6 CAF        53.6816   10.2827   53.8780 C.ar        1 MOL      -0.0454
      7 CAG        53.4678    8.9573   50.4533 C.ar        1 MOL      -0.0261
      8 CAH        54.0097    7.6572   52.4140 C.ar        1 MOL      -0.0261
      9 CAI        53.9615    7.9245   49.6358 C.ar        1 MOL      -0.0390
     10 CAJ        54.5007    6.6256   51.5919 C.ar        1 MOL      -0.0390
     11 CAK        52.8208    4.5941   48.3441 C.3         1 MOL      -0.0152
     12 CAL        54.9282    4.4266   46.9711 C.3         1 MOL      -0.0152
     13 CAM        53.1914    3.2077   48.9678 C.3         1 MOL      -0.0331
     14 CAN        55.2913    3.0902   47.6944 C.3         1 MOL      -0.0331
     15 CAO        55.2370    4.1757   49.9089 C.3         1 MOL      -0.0283
     16 CAP        52.9964    9.8996   52.6975 C.ar        1 MOL       0.0022
     17 CAQ        53.4813    8.8454   51.8624 C.ar        1 MOL       0.0101
     18 CAR        54.4594    6.7065   50.1735 C.ar        1 MOL      -0.0233
     19 CAS        54.1329    5.3507   47.9554 C.3         1 MOL      -0.0252
     20 NAT        54.6862    3.0631   49.0660 N.4         1 MOL       0.2304
     21 CAU        54.9979    5.6115   49.2626 C.3         1 MOL       0.0922
     22 H1         56.9525    5.7451   49.3882 H           1 MOL       0.1945
     23 H2         51.6611   12.7492   54.9490 H           1 MOL       0.0663
     24 H3         50.4801   12.1542   52.9102 H           1 MOL       0.0633
     25 H4         53.6955   11.5777   55.5539 H           1 MOL       0.0633
     26 H5         51.2812   10.3603   51.5227 H           1 MOL       0.0672
     27 H6         54.5577    9.8248   54.1417 H           1 MOL       0.0672
     28 H7         53.1155    9.8082   50.0018 H           1 MOL       0.0700
     29 H8         54.0469    7.5281   53.4289 H           1 MOL       0.0700
     30 H9         53.9496    8.0931   48.6292 H           1 MOL       0.0838
     31 H10        54.9048    5.8266   52.0744 H           1 MOL       0.0838
     32 H11        52.2426    5.1876   49.0567 H           1 MOL       0.0312
     33 H12        52.1995    4.4464   47.4558 H           1 MOL       0.0312
     34 H13        54.3181    4.2215   46.0859 H           1 MOL       0.0312
     35 H14        55.8344    4.9299   46.6231 H           1 MOL       0.0312
     36 H15        52.7872    2.3967   48.3556 H           1 MOL       0.0814
     37 H16        52.7348    3.1070   49.9569 H           1 MOL       0.0814
     38 H17        56.3783    2.9807   47.7638 H           1 MOL       0.0814
     39 H18        54.9172    2.2405   47.1161 H           1 MOL       0.0814
     40 H19        56.3007    3.9964   50.0979 H           1 MOL       0.0725
     41 H20        54.7369    4.0632   50.8678 H           1 MOL       0.0725
     42 H21        53.8880    6.2628   47.4161 H           1 MOL       0.0225
     43 H22        54.9068    2.1719   49.5142 H           1 MOL       0.2025
@<TRIPOS>BOND
     1    21     1   1
     2     3     2  ar
     3     4     2  ar
     4     5     3  ar
     5     6     4  ar
     6    16     5  ar
     7    16     6  ar
     8     9     7  ar
     9     7    17  ar
    10    10     8  ar
    11     8    17  ar
    12    18     9  ar
    13    18    10  ar
    14    13    11   1
    15    11    19   1
    16    14    12   1
    17    12    19   1
    18    20    13   1
    19    20    14   1
    20    15    20   1
    21    21    15   1
    22    17    16   1
    23    18    21   1
    24    19    21   1
    25     1    22   1
    26     2    23   1
    27     3    24   1
    28     4    25   1
    29     5    26   1
    30     6    27   1
    31     7    28   1
    32     8    29   1
    33     9    30   1
    34    10    31   1
    35    11    32   1
    36    11    33   1
    37    12    34   1
    38    12    35   1
    39    13    36   1
    40    13    37   1
    41    14    38   1
    42    14    39   1
    43    15    40   1
    44    15    41   1
    45    19    42   1
    46    20    43   1
@<TRIPOS>SUBSTRUCTURE
     1  MOL      2

