@<TRIPOS>MOLECULE
3acw_ligand_069
    43    46
SMALL
GAST_HUCK
****
This file was generated by PARSER (from files_GN.cpp)

@<TRIPOS>ATOM
      1 OAA        55.1046   21.1529   53.6069 O.3         1 MOL      -0.4236
      2 CAB        56.1824   12.5180   50.3305 C.ar        1 MOL      -0.0563
      3 CAC        55.1741   13.0142   51.1674 C.ar        1 MOL      -0.0552
      4 CAD        57.2256   13.3676   49.9167 C.ar        1 MOL      -0.0552
      5 CAE        55.2113   14.3511   51.6025 C.ar        1 MOL      -0.0454
      6 CAF        57.2535   14.7061   50.3354 C.ar        1 MOL      -0.0454
      7 CAG        57.4723   17.4091   51.5812 C.ar        1 MOL      -0.0261
      8 CAH        55.1554   17.2471   52.2076 C.ar        1 MOL      -0.0261
      9 CAI        57.5193   18.7385   52.0409 C.ar        1 MOL      -0.0390
     10 CAJ        55.2065   18.5613   52.7037 C.ar        1 MOL      -0.0390
     11 CAK        58.3219   21.8754   51.6861 C.3         1 MOL      -0.0152
     12 CAL        56.5415   23.3193   52.6463 C.3         1 MOL      -0.0152
     13 CAM        59.1437   22.0571   53.0122 C.3         1 MOL      -0.0331
     14 CAN        57.3582   23.4337   53.9807 C.3         1 MOL      -0.0331
     15 CAO        57.3826   20.9875   54.3584 C.3         1 MOL      -0.0283
     16 CAP        56.2516   15.2452   51.1956 C.ar        1 MOL       0.0022
     17 CAQ        56.2911   16.6126   51.6445 C.ar        1 MOL       0.0101
     18 CAR        56.3774   19.3652   52.6089 C.ar        1 MOL      -0.0233
     19 CAS        56.7958   21.8929   52.0349 C.3         1 MOL      -0.0252
     20 NAT        58.2252   22.2188   54.1933 N.4         1 MOL       0.2304
     21 CAU        56.4139   20.7930   53.1199 C.3         1 MOL       0.0922
     22 H1         54.5814   21.4318   52.8306 H           1 MOL       0.1945
     23 H2         56.1665   11.5402   50.0252 H           1 MOL       0.0663
     24 H3         54.4186   12.3979   51.4781 H           1 MOL       0.0633
     25 H4         57.9605   13.0086   49.3099 H           1 MOL       0.0633
     26 H5         54.4767   14.6544   52.2465 H           1 MOL       0.0672
     27 H6         58.0147   15.2941   49.9905 H           1 MOL       0.0672
     28 H7         58.3472   17.0154   51.2105 H           1 MOL       0.0700
     29 H8         54.2599   16.7773   52.2395 H           1 MOL       0.0700
     30 H9         58.4099   19.2269   51.9913 H           1 MOL       0.0838
     31 H10        54.3488   18.9268   53.1426 H           1 MOL       0.0838
     32 H11        58.5846   20.9462   51.1738 H           1 MOL       0.0312
     33 H12        58.5568   22.7118   51.0031 H           1 MOL       0.0312
     34 H13        56.8661   24.1008   51.9517 H           1 MOL       0.0312
     35 H14        55.4766   23.4926   52.8231 H           1 MOL       0.0312
     36 H15        59.7920   22.9349   52.9397 H           1 MOL       0.0814
     37 H16        59.7947   21.1927   53.1719 H           1 MOL       0.0814
     38 H17        56.6608   23.5473   54.8155 H           1 MOL       0.0814
     39 H18        57.9874   24.3245   53.9689 H           1 MOL       0.0814
     40 H19        56.8136   21.0611   55.2889 H           1 MOL       0.0725
     41 H20        58.0441   20.1269   54.4972 H           1 MOL       0.0725
     42 H21        56.1992   21.7499   51.1311 H           1 MOL       0.0225
     43 H22        58.7874   22.3489   55.0384 H           1 MOL       0.2025
@<TRIPOS>BOND
     1    21     1   1
     2     3     2  ar
     3     4     2  ar
     4     5     3  ar
     5     6     4  ar
     6    16     5  ar
     7    16     6  ar
     8     9     7  ar
     9     7    17  ar
    10    10     8  ar
    11     8    17  ar
    12    18     9  ar
    13    18    10  ar
    14    13    11   1
    15    11    19   1
    16    14    12   1
    17    12    19   1
    18    20    13   1
    19    20    14   1
    20    15    20   1
    21    21    15   1
    22    17    16   1
    23    18    21   1
    24    19    21   1
    25     1    22   1
    26     2    23   1
    27     3    24   1
    28     4    25   1
    29     5    26   1
    30     6    27   1
    31     7    28   1
    32     8    29   1
    33     9    30   1
    34    10    31   1
    35    11    32   1
    36    11    33   1
    37    12    34   1
    38    12    35   1
    39    13    36   1
    40    13    37   1
    41    14    38   1
    42    14    39   1
    43    15    40   1
    44    15    41   1
    45    19    42   1
    46    20    43   1
@<TRIPOS>SUBSTRUCTURE
     1  MOL      2

