@<TRIPOS>MOLECULE
3ag9_ligand_022
   140   142
SMALL
GAST_HUCK
****
This file was generated by PARSER (from files_GN.cpp)

@<TRIPOS>ATOM
      1 N1         26.9205    2.6498    0.0897 N.ar        1 A02      -0.2698
      2 C2         26.9331    3.4234    1.2127 C.ar        1 A02       0.0533
      3 N3         25.8223    3.5133    1.9984 N.ar        1 A02      -0.2714
      4 C4         24.6958    2.8378    1.6518 C.ar        1 A02       0.1613
      5 C5         24.6639    2.0457    0.5068 C.ar        1 A02       0.1045
      6 C6         25.8139    1.9556   -0.2933 C.ar        1 A02       0.1298
      7 N6         25.8407    1.1913   -1.3953 N.pl3       1 A02      -0.3152
      8 N7         23.4512    1.4885    0.4103 N.2         1 A02      -0.2958
      9 C8         22.7509    1.9132    1.4769 C.2         1 A02       0.1123
     10 N9         23.4923    2.7410    2.2458 N.pl3       1 A02      -0.1918
     11 OAL        19.6693    3.3206    2.9101 O.2         1 A02      -0.3941
     12 OAN        22.5073    5.5692    5.5596 O.3         1 A02      -0.3840
     13 OAO        23.7896    5.7533    3.1460 O.3         1 A02      -0.3834
     14 OBV        21.9684    2.7603    4.0899 O.3         1 A02      -0.3181
     15 CCC        19.7715    3.6502    4.0852 C.2         1 A02       0.2080
     16 CCK        21.7571    5.1389    4.4188 C.3         1 A02       0.1295
     17 CCL        22.6749    4.8644    3.2177 C.3         1 A02       0.1408
     18 CCM        21.1016    3.7531    4.6671 C.3         1 A02       0.1788
     19 CCN        23.0897    3.3989    3.4563 C.3         1 A02       0.2035
     20 CBZ        13.8070    2.0265    7.0526 C.2         1 A02       0.1782
     21 OAI        13.4542    2.7054    6.1015 O.2         1 A02      -0.3969
     22 CBG        14.7729    0.9497    6.8752 C.3         1 A02       0.0374
     23 CAX        15.5366    0.8681    5.5177 C.3         1 A02      -0.0360
     24 CAU        16.7347    1.8410    5.2979 C.3         1 A02      -0.0492
     25 CAW        16.3648    3.3383    5.1391 C.3         1 A02      -0.0326
     26 CBD        17.3704    4.1684    4.3061 C.3         1 A02       0.0310
     27 NBR        18.7168    4.0599    4.7834 N.am        1 A02      -0.2847
     28 NBS        13.3086    2.2428    8.2639 N.am        1 A02      -0.2656
     29 CCI        12.5128    3.3491    8.7297 C.3         1 A02       0.1308
     30 CCB        13.3529    4.5328    8.8891 C.2         1 A02       0.2016
     31 OAK        13.6135    4.9241   10.0207 O.2         1 A02      -0.3945
     32 CBJ        11.1881    3.5921    7.9275 C.3         1 A02      -0.0122
     33 CAZ        10.4389    4.9278    8.2263 C.3         1 A02      -0.0440
     34 CAS         9.9600    5.1467    9.6833 C.3         1 A02      -0.0124
     35 CAR         8.8704    4.1604   10.1640 C.3         1 A02      -0.0354
     36 NAC         8.9880    3.8973   11.6016 N.4         1 A02       0.2185
     37 CCA        14.2595   12.4047    5.9410 C.2         1 A02       0.1782
     38 OAJ        13.4803   12.1808    5.0226 O.2         1 A02      -0.3969
     39 CBH        15.0428   11.2952    6.4726 C.3         1 A02       0.0374
     40 CAY        14.1420   10.1022    6.8993 C.3         1 A02      -0.0360
     41 CAT        14.9266    8.7813    7.1128 C.3         1 A02      -0.0492
     42 CAV        13.9659    7.5879    7.3660 C.3         1 A02      -0.0326
     43 CBC        14.7052    6.3074    7.8221 C.3         1 A02       0.0310
     44 NBQ        13.8255    5.1754    7.8300 N.am        1 A02      -0.2851
     45 NBT        14.3664   13.6242    6.4619 N.am        1 A02      -0.2656
     46 CCJ        13.6307   14.8089    6.0972 C.3         1 A02       0.1310
     47 CBK        12.1016   14.5560    5.8391 C.3         1 A02      -0.0092
     48 CBB        11.2854   14.0733    7.0794 C.3         1 A02      -0.0156
     49 CBF        10.8559   12.5790    7.0189 C.3         1 A02       0.0627
     50 NBP         9.7737   12.3622    6.1473 N.pl3       1 A02      -0.2723
     51 CBX         8.5176   12.3586    6.4326 C.cat       1 A02       0.2882
     52 NAB         8.0302   12.5326    7.6043 N.pl3       1 A02      -0.2849
     53 NAE         7.6955   12.1410    5.4805 N.pl3       1 A02      -0.2849
     54 CCD        14.3455   15.4887    5.0197 C.2         1 A02       0.2039
     55 OAM        13.8374   15.5887    3.9079 O.2         1 A02      -0.3944
     56 N          15.5635   15.9658    5.2640 N.am        1 A02      -0.2637
     57 CA         16.4155   16.6440    4.3252 C.3         1 A02       0.1307
     58 CB         17.9190   16.6175    4.7490 C.3         1 A02      -0.0092
     59 CG         18.3162   17.5576    5.9358 C.3         1 A02      -0.0156
     60 CD         18.8426   16.8218    7.2067 C.3         1 A02       0.0627
     61 NE         18.1162   17.0858    8.3644 N.pl3       1 A02      -0.2723
     62 CZ         18.1541   18.1071    9.1407 C.cat       1 A02       0.2882
     63 NH1        18.9287   19.1173    9.0081 N.pl3       1 A02      -0.2849
     64 NH2        17.3493   18.1021   10.1350 N.pl3       1 A02      -0.2849
     65 C          15.9708   18.0053    4.0274 C.2         1 A02       0.1992
     66 O          16.1804   18.4947    2.9257 O.2         1 A02      -0.3947
     67 NAF        15.3114   18.7385    4.8997 N.am        1 A02      -0.2990
     68 H1         27.7824    3.9299    1.4741 H           1 A02       0.0996
     69 H2         25.0525    0.6921   -1.6581 H           1 A02       0.1820
     70 H3         26.6494    1.1320   -1.9263 H           1 A02       0.1820
     71 H4         21.7849    1.6409    1.6583 H           1 A02       0.1349
     72 H5         23.1190    4.8300    5.7710 H           1 A02       0.2102
     73 H6         23.4016    6.6394    2.9833 H           1 A02       0.2101
     74 H7         21.0294    5.9219    4.1866 H           1 A02       0.0673
     75 H8         22.0963    4.9497    2.2901 H           1 A02       0.0678
     76 H9         21.0479    3.5539    5.7412 H           1 A02       0.0869
     77 H10        23.9149    3.3634    4.1743 H           1 A02       0.0998
     78 H11        14.2232    0.0122    7.0049 H           1 A02       0.0502
     79 H12        15.5119    1.0091    7.6795 H           1 A02       0.0502
     80 H13        14.8256    0.9782    4.6943 H           1 A02       0.0290
     81 H14        15.9466   -0.1448    5.4442 H           1 A02       0.0290
     82 H15        17.2552    1.5173    4.3907 H           1 A02       0.0267
     83 H16        17.4382    1.7310    6.1284 H           1 A02       0.0267
     84 H17        16.2661    3.7860    6.1299 H           1 A02       0.0285
     85 H18        15.4046    3.4167    4.6298 H           1 A02       0.0285
     86 H19        17.0878    5.2199    4.3759 H           1 A02       0.0520
     87 H20        17.2751    3.8759    3.2557 H           1 A02       0.0520
     88 H21        18.8786    4.3654    5.6879 H           1 A02       0.1851
     89 H22        13.5699    1.6003    8.9459 H           1 A02       0.1883
     90 H23        12.1996    3.0241    9.7253 H           1 A02       0.0800
     91 H24        10.5140    2.7550    8.1115 H           1 A02       0.0312
     92 H25        11.4016    3.5933    6.8593 H           1 A02       0.0312
     93 H26         9.5710    4.9892    7.5646 H           1 A02       0.0269
     94 H27        11.0927    5.7583    7.9594 H           1 A02       0.0269
     95 H28         9.5450    6.1577    9.7528 H           1 A02       0.0317
     96 H29        10.8134    5.1083   10.3671 H           1 A02       0.0317
     97 H30         8.9421    3.2092    9.6336 H           1 A02       0.0813
     98 H31         7.8813    4.5864    9.9757 H           1 A02       0.0813
     99 H32         8.2298    3.2801   11.9017 H           1 A02       0.1994
    100 H33         8.9392    4.7750   12.1281 H           1 A02       0.1994
    101 H34         9.8865    3.4397   11.7913 H           1 A02       0.1994
    102 H35        15.6208   11.6248    7.3452 H           1 A02       0.0502
    103 H36        15.7451   10.9646    5.7011 H           1 A02       0.0502
    104 H37        13.3631    9.9327    6.1514 H           1 A02       0.0290
    105 H38        13.6560   10.3510    7.8434 H           1 A02       0.0290
    106 H39        15.5911    8.9091    7.9681 H           1 A02       0.0267
    107 H40        15.5460    8.5648    6.2351 H           1 A02       0.0267
    108 H41        13.4199    7.3720    6.4417 H           1 A02       0.0285
    109 H42        13.2327    7.8646    8.1318 H           1 A02       0.0285
    110 H43        15.1629    6.4833    8.8005 H           1 A02       0.0520
    111 H44        15.5079    6.0942    7.1120 H           1 A02       0.0520
    112 H45        13.5675    4.8452    6.9561 H           1 A02       0.1851
    113 H46        15.0456   13.7613    7.1352 H           1 A02       0.1883
    114 H47        13.6788   15.4841    6.9640 H           1 A02       0.0800
    115 H48        11.9891   13.8341    5.0157 H           1 A02       0.0313
    116 H49        11.6613   15.4993    5.4910 H           1 A02       0.0313
    117 H50        10.3839   14.6896    7.1731 H           1 A02       0.0301
    118 H51        11.8597   14.2303    8.0026 H           1 A02       0.0301
    119 H52        10.6215   12.2192    8.0307 H           1 A02       0.0689
    120 H53        11.6940   11.9874    6.6436 H           1 A02       0.0689
    121 H54         9.9900   12.1831    5.2519 H           1 A02       0.2642
    122 H55         7.1051   12.5035    7.7331 H           1 A02       0.2615
    123 H56         8.5889   12.6808    8.3332 H           1 A02       0.2615
    124 H57         8.0089   12.0063    4.6117 H           1 A02       0.2615
    125 H58         6.7761   12.1242    5.6473 H           1 A02       0.2615
    126 H59        15.9103   15.8201    6.1572 H           1 A02       0.1883
    127 H60        16.3663   16.0654    3.3917 H           1 A02       0.0800
    128 H61        18.5309   16.8820    3.8794 H           1 A02       0.0313
    129 H62        18.1920   15.5845    4.9840 H           1 A02       0.0313
    130 H63        17.4624   18.1793    6.2096 H           1 A02       0.0301
    131 H64        19.0975   18.2488    5.5925 H           1 A02       0.0301
    132 H65        19.8986   17.0540    7.3578 H           1 A02       0.0689
    133 H66        18.7748   15.7388    7.0556 H           1 A02       0.0689
    134 H67        17.5030   16.4261    8.6050 H           1 A02       0.2642
    135 H68        18.8758   19.8097    9.6298 H           1 A02       0.2615
    136 H69        19.5348   19.1579    8.3002 H           1 A02       0.2615
    137 H70        16.7853   17.3728   10.2646 H           1 A02       0.2615
    138 H71        17.3466   18.8232   10.7218 H           1 A02       0.2615
    139 H72        15.0109   19.6250    4.6588 H           1 A02       0.1815
    140 H73        15.1090   18.3769    5.7766 H           1 A02       0.1815
@<TRIPOS>BOND
     1     2     1  ar
     2     6     1  ar
     3     3     2  ar
     4     4     3  ar
     5     4     5  ar
     6    10     4   1
     7     5     6  ar
     8     8     5   1
     9     6     7   1
    10     9     8   2
    11    10     9   1
    12    19    10   1
    13    15    11   2
    14    16    12   1
    15    17    13   1
    16    18    14   1
    17    14    19   1
    18    15    18   1
    19    27    15  am
    20    16    17   1
    21    18    16   1
    22    17    19   1
    23    20    21   2
    24    20    22   1
    25    28    20  am
    26    22    23   1
    27    23    24   1
    28    24    25   1
    29    25    26   1
    30    26    27   1
    31    29    28   1
    32    30    29   1
    33    29    32   1
    34    30    31   2
    35    44    30  am
    36    32    33   1
    37    33    34   1
    38    34    35   1
    39    35    36   1
    40    37    38   2
    41    39    37   1
    42    37    45  am
    43    40    39   1
    44    41    40   1
    45    42    41   1
    46    43    42   1
    47    43    44   1
    48    45    46   1
    49    46    47   1
    50    46    54   1
    51    47    48   1
    52    48    49   1
    53    49    50   1
    54    50    51  ar
    55    51    52  ar
    56    51    53  ar
    57    54    55   2
    58    54    56  am
    59    56    57   1
    60    57    58   1
    61    57    65   1
    62    58    59   1
    63    59    60   1
    64    60    61   1
    65    61    62  ar
    66    62    63  ar
    67    62    64  ar
    68    65    66   2
    69    65    67  am
    70     2    68   1
    71     7    69   1
    72     7    70   1
    73     9    71   1
    74    12    72   1
    75    13    73   1
    76    16    74   1
    77    17    75   1
    78    18    76   1
    79    19    77   1
    80    22    78   1
    81    22    79   1
    82    23    80   1
    83    23    81   1
    84    24    82   1
    85    24    83   1
    86    25    84   1
    87    25    85   1
    88    26    86   1
    89    26    87   1
    90    27    88   1
    91    28    89   1
    92    29    90   1
    93    32    91   1
    94    32    92   1
    95    33    93   1
    96    33    94   1
    97    34    95   1
    98    34    96   1
    99    35    97   1
   100    35    98   1
   101    36    99   1
   102    36   100   1
   103    36   101   1
   104    39   102   1
   105    39   103   1
   106    40   104   1
   107    40   105   1
   108    41   106   1
   109    41   107   1
   110    42   108   1
   111    42   109   1
   112    43   110   1
   113    43   111   1
   114    44   112   1
   115    45   113   1
   116    46   114   1
   117    47   115   1
   118    47   116   1
   119    48   117   1
   120    48   118   1
   121    49   119   1
   122    49   120   1
   123    50   121   1
   124    52   122   1
   125    52   123   1
   126    53   124   1
   127    53   125   1
   128    56   126   1
   129    57   127   1
   130    58   128   1
   131    58   129   1
   132    59   130   1
   133    59   131   1
   134    60   132   1
   135    60   133   1
   136    61   134   1
   137    63   135   1
   138    63   136   1
   139    64   137   1
   140    64   138   1
   141    67   139   1
   142    67   140   1
@<TRIPOS>SUBSTRUCTURE
     1  A02      2

