@<TRIPOS>MOLECULE
3ag9_ligand_021
   140   142
SMALL
GAST_HUCK
****
This file was generated by PARSER (from files_GN.cpp)

@<TRIPOS>ATOM
      1 N1         -5.6924   16.2117   15.0494 N.ar        1 A02      -0.2698
      2 C2         -4.4464   16.3069   15.5916 C.ar        1 A02       0.0533
      3 N3         -3.5215   17.1418   15.0507 N.ar        1 A02      -0.2714
      4 C4         -3.8385   17.9004   13.9611 C.ar        1 A02       0.1613
      5 C5         -5.1092   17.8205   13.4000 C.ar        1 A02       0.1045
      6 C6         -6.0538   16.9483   13.9555 C.ar        1 A02       0.1298
      7 N6         -7.2844   16.8094   13.4367 N.pl3       1 A02      -0.3152
      8 N7         -5.1615   18.6622   12.3514 N.2         1 A02      -0.2958
      9 C8         -3.9493   19.2375   12.2711 C.2         1 A02       0.1123
     10 N9         -3.1210   18.7789   13.2457 N.pl3       1 A02      -0.1918
     11 OAL         0.4083   15.8070   12.5423 O.2         1 A02      -0.3941
     12 OAN         0.8371   18.4597   15.9299 O.3         1 A02      -0.3840
     13 OAO        -0.6337   20.5723   15.0181 O.3         1 A02      -0.3834
     14 OBV        -0.9700   18.0166   12.8336 O.3         1 A02      -0.3181
     15 CCC         0.8391   16.5621   13.4132 C.2         1 A02       0.2080
     16 CCK        -0.2478   18.1387   15.0600 C.3         1 A02       0.1295
     17 CCL        -1.2514   19.2909   14.8583 C.3         1 A02       0.1408
     18 CCM         0.2219   17.8622   13.6145 C.3         1 A02       0.1788
     19 CCN        -1.7283   19.0981   13.3919 C.3         1 A02       0.2035
     20 CBZ         4.6414   11.9753   10.3667 C.2         1 A02       0.1782
     21 OAI         3.6106   11.3723   10.0824 O.2         1 A02      -0.3969
     22 CBG         4.5500   13.2291   11.0836 C.3         1 A02       0.0374
     23 CAX         4.8134   13.0692   12.6061 C.3         1 A02      -0.0360
     24 CAU         5.1882   14.3831   13.3502 C.3         1 A02      -0.0492
     25 CAW         4.1134   15.5084   13.3656 C.3         1 A02      -0.0326
     26 CBD         2.7496   15.0896   13.9728 C.3         1 A02       0.0310
     27 NBR         1.9165   16.2448   14.1225 N.am        1 A02      -0.2847
     28 NBS         5.8374   11.4553   10.1070 N.am        1 A02      -0.2656
     29 CCI         6.1251   10.1766    9.5269 C.3         1 A02       0.1308
     30 CCB         7.4204   10.2136    8.8366 C.2         1 A02       0.2016
     31 OAK         8.0915    9.1828    8.7837 O.2         1 A02      -0.3945
     32 CBJ         6.0175    9.1098   10.6838 C.3         1 A02      -0.0122
     33 CAZ         5.2369    7.8118   10.3314 C.3         1 A02      -0.0440
     34 CAS         3.7521    7.8166   10.8066 C.3         1 A02      -0.0124
     35 CAR         3.1957    6.4159   11.1883 C.3         1 A02      -0.0354
     36 NAC         3.0129    5.5450   10.0230 N.4         1 A02       0.2185
     37 CCA        13.1348   13.1525    6.5926 C.2         1 A02       0.1782
     38 OAJ        12.5639   12.1490    6.1822 O.2         1 A02      -0.3969
     39 CBH        12.3335   14.2358    7.1421 C.3         1 A02       0.0374
     40 CAY        11.1462   13.7619    8.0558 C.3         1 A02      -0.0360
     41 CAT         9.7249   13.9528    7.4368 C.3         1 A02      -0.0492
     42 CAV         9.1798   12.7290    6.6457 C.3         1 A02      -0.0326
     43 CBC         9.0759   11.4080    7.4636 C.3         1 A02       0.0310
     44 NBQ         7.8242   11.2953    8.1697 N.am        1 A02      -0.2851
     45 NBT        14.4592   13.2435    6.5904 N.am        1 A02      -0.2656
     46 CCJ        15.4043   12.2542    6.1613 C.3         1 A02       0.1310
     47 CBK        15.7210   11.2962    7.3589 C.3         1 A02      -0.0092
     48 CBB        14.5064   10.4804    7.8949 C.3         1 A02      -0.0156
     49 CBF        14.8475    9.5460    9.0995 C.3         1 A02       0.0627
     50 NBP        15.3046    8.2800    8.7002 N.pl3       1 A02      -0.2723
     51 CBX        16.2047    7.5374    9.2178 C.cat       1 A02       0.2882
     52 NAB        16.9569    7.8267   10.2176 N.pl3       1 A02      -0.2849
     53 NAE        16.3763    6.3684    8.7172 N.pl3       1 A02      -0.2849
     54 CCD        16.5653   12.9678    5.6377 C.2         1 A02       0.2039
     55 OAM        17.6417   12.9183    6.2303 O.2         1 A02      -0.3944
     56 N          16.4446   13.7088    4.5448 N.am        1 A02      -0.2637
     57 CA         17.4463   14.5804    3.9928 C.3         1 A02       0.1307
     58 CB         17.5156   15.9246    4.8000 C.3         1 A02      -0.0092
     59 CG         16.1451   16.5805    5.1433 C.3         1 A02      -0.0156
     60 CD         16.2707   17.9357    5.8871 C.3         1 A02       0.0627
     61 NE         16.4701   17.7794    7.2655 N.pl3       1 A02      -0.2723
     62 CZ         16.6433   18.7125    8.1267 C.cat       1 A02       0.2882
     63 NH1        16.6986   19.9587    7.8435 N.pl3       1 A02      -0.2849
     64 NH2        16.7506   18.3983    9.3629 N.pl3       1 A02      -0.2849
     65 C          17.2550   14.7089    2.5557 C.2         1 A02       0.1992
     66 O          17.0675   15.7810    1.9958 O.2         1 A02      -0.3947
     67 NAF        17.3602   13.6562    1.7659 N.am        1 A02      -0.2990
     68 H1         -4.2022   15.7441   16.4105 H           1 A02       0.0996
     69 H2         -7.5394   17.3176   12.6443 H           1 A02       0.1820
     70 H3         -7.9173   16.1888   13.8370 H           1 A02       0.1820
     71 H4         -3.6940   19.9186   11.5585 H           1 A02       0.1349
     72 H5          0.4217   18.6325   16.7999 H           1 A02       0.2102
     73 H6         -0.2758   20.5783   15.9309 H           1 A02       0.2101
     74 H7         -0.7679   17.2608   15.4583 H           1 A02       0.0673
     75 H8         -2.0727   19.2163   15.5742 H           1 A02       0.0678
     76 H9          0.9410   18.6319   13.2989 H           1 A02       0.0869
     77 H10        -1.4830   19.9917   12.8078 H           1 A02       0.0998
     78 H11         3.5557   13.6697   10.9471 H           1 A02       0.0502
     79 H12         5.2709   13.9267   10.6525 H           1 A02       0.0502
     80 H13         5.6438   12.3770   12.7529 H           1 A02       0.0290
     81 H14         3.9370   12.6218   13.0786 H           1 A02       0.0290
     82 H15         6.0939   14.7893   12.8951 H           1 A02       0.0267
     83 H16         5.4396   14.1396   14.3843 H           1 A02       0.0267
     84 H17         3.9565   15.8768   12.3479 H           1 A02       0.0285
     85 H18         4.5106   16.3477   13.9509 H           1 A02       0.0285
     86 H19         2.9040   14.6566   14.9642 H           1 A02       0.0520
     87 H20         2.2827   14.3288   13.3402 H           1 A02       0.0520
     88 H21         2.1988   16.8899   14.7909 H           1 A02       0.1851
     89 H22         6.6015   11.9615   10.4281 H           1 A02       0.1883
     90 H23         5.3846    9.9406    8.7594 H           1 A02       0.0800
     91 H24         5.5185    9.5373   11.5585 H           1 A02       0.0312
     92 H25         7.0186    8.8236   11.0228 H           1 A02       0.0312
     93 H26         5.7608    6.9706   10.8012 H           1 A02       0.0269
     94 H27         5.2672    7.6418    9.2500 H           1 A02       0.0269
     95 H28         3.1155    8.2439   10.0242 H           1 A02       0.0317
     96 H29         3.6545    8.4490   11.6943 H           1 A02       0.0317
     97 H30         2.2253    6.5333   11.6773 H           1 A02       0.0813
     98 H31         3.8717    5.9253   11.8934 H           1 A02       0.0813
     99 H32         2.6964    4.6188   10.3356 H           1 A02       0.1994
    100 H33         3.8994    5.4445    9.5289 H           1 A02       0.1994
    101 H34         2.3135    5.9482    9.3922 H           1 A02       0.1994
    102 H35        11.9661   14.8390    6.3026 H           1 A02       0.0502
    103 H36        12.9664   14.9046    7.7416 H           1 A02       0.0502
    104 H37        11.1675   14.3585    8.9804 H           1 A02       0.0290
    105 H38        11.2741   12.7138    8.3589 H           1 A02       0.0290
    106 H39         9.7495   14.8225    6.7660 H           1 A02       0.0267
    107 H40         9.0190   14.1898    8.2366 H           1 A02       0.0267
    108 H41         9.8273   12.5480    5.7837 H           1 A02       0.0285
    109 H42         8.1876   12.9796    6.2555 H           1 A02       0.0285
    110 H43         9.9106   11.3447    8.1808 H           1 A02       0.0520
    111 H44         9.1520   10.5706    6.7527 H           1 A02       0.0520
    112 H45         7.2363   12.0711    8.1683 H           1 A02       0.1851
    113 H46        14.8527   14.0697    6.9244 H           1 A02       0.1883
    114 H47        15.0016   11.6336    5.3570 H           1 A02       0.0800
    115 H48        16.1243   11.8793    8.1947 H           1 A02       0.0313
    116 H49        16.4849   10.5726    7.0547 H           1 A02       0.0313
    117 H50        14.0728    9.8797    7.0794 H           1 A02       0.0301
    118 H51        13.7307   11.1726    8.2378 H           1 A02       0.0301
    119 H52        13.9255    9.3624    9.6638 H           1 A02       0.0689
    120 H53        15.5400   10.0483    9.7835 H           1 A02       0.0689
    121 H54        14.8436    7.8984    7.9737 H           1 A02       0.2642
    122 H55        17.5598    7.1845   10.5365 H           1 A02       0.2615
    123 H56        16.8623    8.6392   10.6607 H           1 A02       0.2615
    124 H57        15.8687    6.0914    7.9836 H           1 A02       0.2615
    125 H58        17.0042    5.7935    9.0985 H           1 A02       0.2615
    126 H59        15.5792   13.6989    4.1050 H           1 A02       0.1883
    127 H60        18.4327   14.1046    4.1055 H           1 A02       0.0800
    128 H61        18.1181   16.6405    4.2286 H           1 A02       0.0313
    129 H62        18.0496   15.7316    5.7329 H           1 A02       0.0313
    130 H63        15.5455   15.8989    5.7512 H           1 A02       0.0301
    131 H64        15.5937   16.7710    4.2192 H           1 A02       0.0301
    132 H65        15.3399   18.4948    5.7284 H           1 A02       0.0689
    133 H66        17.0951   18.5132    5.4456 H           1 A02       0.0689
    134 H67        16.4550   16.9062    7.5953 H           1 A02       0.2642
    135 H68        16.8054   20.5810    8.5306 H           1 A02       0.2615
    136 H69        16.6320   20.2502    6.9589 H           1 A02       0.2615
    137 H70        16.6977   17.5028    9.6302 H           1 A02       0.2615
    138 H71        16.8710   19.0737    9.9966 H           1 A02       0.2615
    139 H72        17.2627   13.7597    0.8071 H           1 A02       0.1815
    140 H73        17.5418   12.7818    2.1458 H           1 A02       0.1815
@<TRIPOS>BOND
     1     2     1  ar
     2     6     1  ar
     3     3     2  ar
     4     4     3  ar
     5     4     5  ar
     6    10     4   1
     7     5     6  ar
     8     8     5   1
     9     6     7   1
    10     9     8   2
    11    10     9   1
    12    19    10   1
    13    15    11   2
    14    16    12   1
    15    17    13   1
    16    18    14   1
    17    14    19   1
    18    15    18   1
    19    27    15  am
    20    16    17   1
    21    18    16   1
    22    17    19   1
    23    20    21   2
    24    20    22   1
    25    28    20  am
    26    22    23   1
    27    23    24   1
    28    24    25   1
    29    25    26   1
    30    26    27   1
    31    29    28   1
    32    30    29   1
    33    29    32   1
    34    30    31   2
    35    44    30  am
    36    32    33   1
    37    33    34   1
    38    34    35   1
    39    35    36   1
    40    37    38   2
    41    39    37   1
    42    37    45  am
    43    40    39   1
    44    41    40   1
    45    42    41   1
    46    43    42   1
    47    43    44   1
    48    45    46   1
    49    46    47   1
    50    46    54   1
    51    47    48   1
    52    48    49   1
    53    49    50   1
    54    50    51  ar
    55    51    52  ar
    56    51    53  ar
    57    54    55   2
    58    54    56  am
    59    56    57   1
    60    57    58   1
    61    57    65   1
    62    58    59   1
    63    59    60   1
    64    60    61   1
    65    61    62  ar
    66    62    63  ar
    67    62    64  ar
    68    65    66   2
    69    65    67  am
    70     2    68   1
    71     7    69   1
    72     7    70   1
    73     9    71   1
    74    12    72   1
    75    13    73   1
    76    16    74   1
    77    17    75   1
    78    18    76   1
    79    19    77   1
    80    22    78   1
    81    22    79   1
    82    23    80   1
    83    23    81   1
    84    24    82   1
    85    24    83   1
    86    25    84   1
    87    25    85   1
    88    26    86   1
    89    26    87   1
    90    27    88   1
    91    28    89   1
    92    29    90   1
    93    32    91   1
    94    32    92   1
    95    33    93   1
    96    33    94   1
    97    34    95   1
    98    34    96   1
    99    35    97   1
   100    35    98   1
   101    36    99   1
   102    36   100   1
   103    36   101   1
   104    39   102   1
   105    39   103   1
   106    40   104   1
   107    40   105   1
   108    41   106   1
   109    41   107   1
   110    42   108   1
   111    42   109   1
   112    43   110   1
   113    43   111   1
   114    44   112   1
   115    45   113   1
   116    46   114   1
   117    47   115   1
   118    47   116   1
   119    48   117   1
   120    48   118   1
   121    49   119   1
   122    49   120   1
   123    50   121   1
   124    52   122   1
   125    52   123   1
   126    53   124   1
   127    53   125   1
   128    56   126   1
   129    57   127   1
   130    58   128   1
   131    58   129   1
   132    59   130   1
   133    59   131   1
   134    60   132   1
   135    60   133   1
   136    61   134   1
   137    63   135   1
   138    63   136   1
   139    64   137   1
   140    64   138   1
   141    67   139   1
   142    67   140   1
@<TRIPOS>SUBSTRUCTURE
     1  A02      2

