@<TRIPOS>MOLECULE
3ag9_ligand_001
   140   142
SMALL
GAST_HUCK
****
This file was generated by PARSER (from files_GN.cpp)

@<TRIPOS>ATOM
      1 N1         14.5019    1.8650   13.7876 N.ar        1 A02      -0.2698
      2 C2         13.2610    2.1439   13.2992 C.ar        1 A02       0.0533
      3 N3         12.2342    2.4148   14.1515 N.ar        1 A02      -0.2714
      4 C4         12.4460    2.4077   15.4964 C.ar        1 A02       0.1613
      5 C5         13.7090    2.1055   16.0067 C.ar        1 A02       0.1045
      6 C6         14.7627    1.8348   15.1223 C.ar        1 A02       0.1298
      7 N6         15.9961    1.5479   15.5670 N.pl3       1 A02      -0.3152
      8 N7         13.6579    2.1537   17.3436 N.2         1 A02      -0.2958
      9 C8         12.3893    2.4684   17.6585 C.2         1 A02       0.1123
     10 N9         11.6356    2.6427   16.5497 N.pl3       1 A02      -0.1918
     11 OAL        10.9598    4.9990   14.0425 O.2         1 A02      -0.3941
     12 OAN         7.5204    4.3032   17.0286 O.3         1 A02      -0.3840
     13 OAO         9.7687    4.2978   18.6798 O.3         1 A02      -0.3834
     14 OBV         9.6652    3.0562   15.2541 O.3         1 A02      -0.3181
     15 CCC         9.7783    5.2376   14.2633 C.2         1 A02       0.2080
     16 CCK         8.7226    4.8649   16.4959 C.3         1 A02       0.1295
     17 CCL         9.9534    4.3589   17.2604 C.3         1 A02       0.1408
     18 CCM         8.9931    4.3173   15.0755 C.3         1 A02       0.1788
     19 CCN        10.2413    2.9953   16.5745 C.3         1 A02       0.2035
     20 CBZ         9.8578    4.1313    8.5597 C.2         1 A02       0.1782
     21 OAI         9.7162    5.1210    7.8462 O.2         1 A02      -0.3969
     22 CBG         9.1169    4.0434    9.8051 C.3         1 A02       0.0374
     23 CAX         9.9851    4.3635   11.0562 C.3         1 A02      -0.0360
     24 CAU        10.6939    5.7534   11.0510 C.3         1 A02      -0.0492
     25 CAW         9.8140    6.9816   11.4514 C.3         1 A02      -0.0326
     26 CBD         9.8345    7.3344   12.9631 C.3         1 A02       0.0310
     27 NBR         9.2007    6.3277   13.7587 N.am        1 A02      -0.2847
     28 NBS        10.7217    3.1663    8.2465 N.am        1 A02      -0.2656
     29 CCI        11.5932    3.1589    7.1106 C.3         1 A02       0.1308
     30 CCB        12.5922    4.2209    7.1439 C.2         1 A02       0.2016
     31 OAK        13.1102    4.5226    8.2185 O.2         1 A02      -0.3945
     32 CBJ        12.2567    1.7632    6.9020 C.3         1 A02      -0.0122
     33 CAZ        12.9313    1.1134    8.1453 C.3         1 A02      -0.0440
     34 CAS        14.0584    0.0973    7.7874 C.3         1 A02      -0.0124
     35 CAR        14.9604    0.5837    6.6312 C.3         1 A02      -0.0354
     36 NAC        16.2317   -0.1421    6.5641 N.4         1 A02       0.2185
     37 CCA        14.8246   11.4893    5.6067 C.2         1 A02       0.1782
     38 OAJ        15.3612   11.5021    6.7143 O.2         1 A02      -0.3969
     39 CBH        15.0832   10.3500    4.7532 C.3         1 A02       0.0374
     40 CAY        14.3965    9.0554    5.2488 C.3         1 A02      -0.0360
     41 CAT        14.7766    7.8207    4.3787 C.3         1 A02      -0.0492
     42 CAV        13.8332    6.6008    4.5395 C.3         1 A02      -0.0326
     43 CBC        13.8614    5.9464    5.9481 C.3         1 A02       0.0310
     44 NBQ        12.9215    4.8722    6.0301 N.am        1 A02      -0.2851
     45 NBT        14.1318   12.5256    5.1559 N.am        1 A02      -0.2656
     46 CCJ        13.9181   13.7971    5.7972 C.3         1 A02       0.1310
     47 CBK        12.4009   14.1089    6.0558 C.3         1 A02      -0.0092
     48 CBB        11.3612   12.9628    5.9142 C.3         1 A02      -0.0156
     49 CBF        11.3809   11.8573    7.0153 C.3         1 A02       0.0627
     50 NBP        10.1717   11.7517    7.7118 N.pl3       1 A02      -0.2723
     51 CBX         9.0109   11.4101    7.2800 C.cat       1 A02       0.2882
     52 NAB         8.7482   11.0356    6.0876 N.pl3       1 A02      -0.2849
     53 NAE         8.0482   11.4758    8.1188 N.pl3       1 A02      -0.2849
     54 CCD        14.5128   14.8213    4.9417 C.2         1 A02       0.2039
     55 OAM        14.1576   14.8502    3.7653 O.2         1 A02      -0.3944
     56 N          15.3717   15.7235    5.4045 N.am        1 A02      -0.2637
     57 CA         15.9301   16.8329    4.6643 C.3         1 A02       0.1307
     58 CB         17.4746   16.6549    4.4867 C.3         1 A02      -0.0092
     59 CG         18.3491   16.2712    5.7174 C.3         1 A02      -0.0156
     60 CD         18.6721   17.4162    6.7145 C.3         1 A02       0.0627
     61 NE         17.7930   17.4482    7.8039 N.pl3       1 A02      -0.2723
     62 CZ         17.4603   18.4636    8.5077 C.cat       1 A02       0.2882
     63 NH1        17.8200   19.6732    8.2819 N.pl3       1 A02      -0.2849
     64 NH2        16.7072   18.2773    9.5249 N.pl3       1 A02      -0.2849
     65 C          15.4578   18.0860    5.2351 C.2         1 A02       0.1992
     66 O          16.1339   18.7657    6.0002 O.2         1 A02      -0.3947
     67 NAF        14.3066   18.5992    4.8518 N.am        1 A02      -0.2990
     68 H1         13.1040    2.1543   12.2914 H           1 A02       0.0996
     69 H2         16.1685    1.5286   16.5217 H           1 A02       0.1820
     70 H3         16.7087    1.3474   14.9423 H           1 A02       0.1820
     71 H4         12.0523    2.5568   18.6193 H           1 A02       0.1349
     72 H5          6.8206    4.5330   16.3726 H           1 A02       0.2102
     73 H6          9.6023    3.3630   18.9131 H           1 A02       0.2101
     74 H7          8.6449    5.9579   16.5296 H           1 A02       0.0673
     75 H8         10.7881    5.0450   17.0789 H           1 A02       0.0678
     76 H9          8.0483    4.1050   14.5621 H           1 A02       0.0869
     77 H10         9.7054    2.2142   17.1197 H           1 A02       0.0998
     78 H11         8.7166    3.0305    9.8990 H           1 A02       0.0502
     79 H12         8.2585    4.7177    9.7863 H           1 A02       0.0502
     80 H13        10.7524    3.5888   11.1461 H           1 A02       0.0290
     81 H14         9.3537    4.2750   11.9409 H           1 A02       0.0290
     82 H15        11.1000    5.9239   10.0509 H           1 A02       0.0267
     83 H16        11.5611    5.7008   11.7161 H           1 A02       0.0267
     84 H17         8.7786    6.8306   11.1300 H           1 A02       0.0285
     85 H18        10.1913    7.8579   10.9106 H           1 A02       0.0285
     86 H19         9.2700    8.2633   13.1031 H           1 A02       0.0520
     87 H20        10.8643    7.5304   13.2807 H           1 A02       0.0520
     88 H21         8.2510    6.4461   13.9313 H           1 A02       0.1851
     89 H22        10.7643    2.4003    8.8418 H           1 A02       0.1883
     90 H23        10.9566    3.3170    6.2300 H           1 A02       0.0800
     91 H24        13.0010    1.8706    6.1133 H           1 A02       0.0312
     92 H25        11.4980    1.0720    6.5267 H           1 A02       0.0312
     93 H26        12.1677    0.5837    8.7249 H           1 A02       0.0269
     94 H27        13.3534    1.8799    8.7929 H           1 A02       0.0269
     95 H28        13.6083   -0.8638    7.5241 H           1 A02       0.0317
     96 H29        14.6682   -0.0587    8.6788 H           1 A02       0.0317
     97 H30        15.2079    1.6376    6.7591 H           1 A02       0.0813
     98 H31        14.4662    0.4538    5.6708 H           1 A02       0.0813
     99 H32        16.7659    0.2101    5.7706 H           1 A02       0.1994
    100 H33        16.0588   -1.1446    6.4379 H           1 A02       0.1994
    101 H34        16.7648    0.0048    7.4207 H           1 A02       0.1994
    102 H35        16.1675   10.1956    4.6805 H           1 A02       0.0502
    103 H36        14.7242   10.5572    3.7373 H           1 A02       0.0502
    104 H37        13.3073    9.1928    5.2154 H           1 A02       0.0290
    105 H38        14.6855    8.8611    6.2837 H           1 A02       0.0290
    106 H39        15.8038    7.5209    4.6120 H           1 A02       0.0267
    107 H40        14.7513    8.1145    3.3255 H           1 A02       0.0267
    108 H41        14.1295    5.8458    3.8010 H           1 A02       0.0285
    109 H42        12.8098    6.9069    4.3048 H           1 A02       0.0285
    110 H43        13.5844    6.7009    6.6939 H           1 A02       0.0520
    111 H44        14.8690    5.5783    6.1605 H           1 A02       0.0520
    112 H45        12.4894    4.5896    5.2050 H           1 A02       0.1851
    113 H46        13.7571   12.4335    4.2627 H           1 A02       0.1883
    114 H47        14.4148   13.8067    6.7738 H           1 A02       0.0800
    115 H48        12.0551   14.8936    5.3735 H           1 A02       0.0313
    116 H49        12.3038   14.5309    7.0618 H           1 A02       0.0313
    117 H50        11.4908   12.4870    4.9367 H           1 A02       0.0301
    118 H51        10.3710   13.4366    5.9073 H           1 A02       0.0301
    119 H52        12.1485   12.0968    7.7559 H           1 A02       0.0689
    120 H53        11.6384   10.8893    6.5739 H           1 A02       0.0689
    121 H54        10.2014   11.9824    8.6193 H           1 A02       0.2642
    122 H55         7.8757   10.8058    5.8478 H           1 A02       0.2615
    123 H56         9.4296   10.9755    5.4511 H           1 A02       0.2615
    124 H57         8.2162   11.7902    8.9811 H           1 A02       0.2615
    125 H58         7.1781   11.2501    7.8624 H           1 A02       0.2615
    126 H59        15.6094   15.6631    6.3444 H           1 A02       0.1883
    127 H60        15.5374   16.8418    3.6430 H           1 A02       0.0800
    128 H61        17.8825   17.5617    4.0306 H           1 A02       0.0313
    129 H62        17.6103   15.8532    3.7533 H           1 A02       0.0313
    130 H63        19.3044   15.9188    5.3149 H           1 A02       0.0301
    131 H64        17.8971   15.4261    6.2438 H           1 A02       0.0301
    132 H65        18.7175   18.3623    6.1772 H           1 A02       0.0689
    133 H66        19.6684   17.2469    7.1302 H           1 A02       0.0689
    134 H67        17.4394   16.6251    8.0764 H           1 A02       0.2642
    135 H68        17.5238   20.3528    8.8488 H           1 A02       0.2615
    136 H69        18.3743   19.8781    7.5615 H           1 A02       0.2615
    137 H70        16.4435   17.4153    9.7606 H           1 A02       0.2615
    138 H71        16.4520   19.0083   10.0504 H           1 A02       0.2615
    139 H72        14.0068   19.4468    5.2278 H           1 A02       0.1815
    140 H73        13.7604   18.1287    4.1966 H           1 A02       0.1815
@<TRIPOS>BOND
     1     2     1  ar
     2     6     1  ar
     3     3     2  ar
     4     4     3  ar
     5     4     5  ar
     6    10     4   1
     7     5     6  ar
     8     8     5   1
     9     6     7   1
    10     9     8   2
    11    10     9   1
    12    19    10   1
    13    15    11   2
    14    16    12   1
    15    17    13   1
    16    18    14   1
    17    14    19   1
    18    15    18   1
    19    27    15  am
    20    16    17   1
    21    18    16   1
    22    17    19   1
    23    20    21   2
    24    20    22   1
    25    28    20  am
    26    22    23   1
    27    23    24   1
    28    24    25   1
    29    25    26   1
    30    26    27   1
    31    29    28   1
    32    30    29   1
    33    29    32   1
    34    30    31   2
    35    44    30  am
    36    32    33   1
    37    33    34   1
    38    34    35   1
    39    35    36   1
    40    37    38   2
    41    39    37   1
    42    37    45  am
    43    40    39   1
    44    41    40   1
    45    42    41   1
    46    43    42   1
    47    43    44   1
    48    45    46   1
    49    46    47   1
    50    46    54   1
    51    47    48   1
    52    48    49   1
    53    49    50   1
    54    50    51  ar
    55    51    52  ar
    56    51    53  ar
    57    54    55   2
    58    54    56  am
    59    56    57   1
    60    57    58   1
    61    57    65   1
    62    58    59   1
    63    59    60   1
    64    60    61   1
    65    61    62  ar
    66    62    63  ar
    67    62    64  ar
    68    65    66   2
    69    65    67  am
    70     2    68   1
    71     7    69   1
    72     7    70   1
    73     9    71   1
    74    12    72   1
    75    13    73   1
    76    16    74   1
    77    17    75   1
    78    18    76   1
    79    19    77   1
    80    22    78   1
    81    22    79   1
    82    23    80   1
    83    23    81   1
    84    24    82   1
    85    24    83   1
    86    25    84   1
    87    25    85   1
    88    26    86   1
    89    26    87   1
    90    27    88   1
    91    28    89   1
    92    29    90   1
    93    32    91   1
    94    32    92   1
    95    33    93   1
    96    33    94   1
    97    34    95   1
    98    34    96   1
    99    35    97   1
   100    35    98   1
   101    36    99   1
   102    36   100   1
   103    36   101   1
   104    39   102   1
   105    39   103   1
   106    40   104   1
   107    40   105   1
   108    41   106   1
   109    41   107   1
   110    42   108   1
   111    42   109   1
   112    43   110   1
   113    43   111   1
   114    44   112   1
   115    45   113   1
   116    46   114   1
   117    47   115   1
   118    47   116   1
   119    48   117   1
   120    48   118   1
   121    49   119   1
   122    49   120   1
   123    50   121   1
   124    52   122   1
   125    52   123   1
   126    53   124   1
   127    53   125   1
   128    56   126   1
   129    57   127   1
   130    58   128   1
   131    58   129   1
   132    59   130   1
   133    59   131   1
   134    60   132   1
   135    60   133   1
   136    61   134   1
   137    63   135   1
   138    63   136   1
   139    64   137   1
   140    64   138   1
   141    67   139   1
   142    67   140   1
@<TRIPOS>SUBSTRUCTURE
     1  A02      2

