@<TRIPOS>MOLECULE
3ag9_ligand_028
   140   142
SMALL
GAST_HUCK
****
This file was generated by PARSER (from files_GN.cpp)

@<TRIPOS>ATOM
      1 N1         11.3082    2.5997   15.7579 N.ar        1 A02      -0.2698
      2 C2         10.9792    2.8932   14.4701 C.ar        1 A02       0.0533
      3 N3          9.7803    3.4573   14.1846 N.ar        1 A02      -0.2714
      4 C4          8.8989    3.7331   15.1828 C.ar        1 A02       0.1613
      5 C5          9.2164    3.4317   16.5054 C.ar        1 A02       0.1045
      6 C6         10.4610    2.8520   16.7949 C.ar        1 A02       0.1298
      7 N6         10.8260    2.5352   18.0460 N.pl3       1 A02      -0.3152
      8 N7          8.1794    3.7805   17.2795 N.2         1 A02      -0.2958
      9 C8          7.2415    4.2748   16.4537 C.2         1 A02       0.1123
     10 N9          7.6609    4.2687   15.1727 N.pl3       1 A02      -0.1918
     11 OAL         7.8540    6.6585   10.0068 O.2         1 A02      -0.3941
     12 OAN         5.6797    7.8314   12.5731 O.3         1 A02      -0.3840
     13 OAO         4.7499    5.9482   14.2713 O.3         1 A02      -0.3834
     14 OBV         7.6706    4.8202   12.8632 O.3         1 A02      -0.3181
     15 CCC         8.1631    6.3791   11.1619 C.2         1 A02       0.2080
     16 CCK         6.6769    6.9540   13.1024 C.3         1 A02       0.1295
     17 CCL         6.1729    6.0917   14.2705 C.3         1 A02       0.1408
     18 CCM         7.1441    5.8951   12.0783 C.3         1 A02       0.1788
     19 CCN         6.8749    4.7163   14.0539 C.3         1 A02       0.2035
     20 CBZ        11.3514    9.8181    7.7174 C.2         1 A02       0.1782
     21 OAI        11.6638    9.2080    6.6990 O.2         1 A02      -0.3969
     22 CBG         9.9690   10.2394    7.8769 C.3         1 A02       0.0374
     23 CAX         9.0593    9.2219    8.6275 C.3         1 A02      -0.0360
     24 CAU         9.0419    9.3451   10.1839 C.3         1 A02      -0.0492
     25 CAW        10.2686    8.7903   10.9649 C.3         1 A02      -0.0326
     26 CBD        10.4603    7.2492   10.9257 C.3         1 A02       0.0310
     27 NBR         9.3982    6.5679   11.6055 N.am        1 A02      -0.2847
     28 NBS        12.2561   10.1673    8.6248 N.am        1 A02      -0.2656
     29 CCI        13.6695    9.8985    8.6565 C.3         1 A02       0.1308
     30 CCB        13.9692    8.5665    9.1900 C.2         1 A02       0.2016
     31 OAK        13.4289    7.6010    8.6645 O.2         1 A02      -0.3945
     32 CBJ        14.3861   10.1629    7.2865 C.3         1 A02      -0.0122
     33 CAZ        15.7825   10.8475    7.4293 C.3         1 A02      -0.0440
     34 CAS        15.7791   12.3814    7.1226 C.3         1 A02      -0.0124
     35 CAR        16.4107   12.7418    5.7518 C.3         1 A02      -0.0354
     36 NAC        16.1482   14.1376    5.3811 N.4         1 A02       0.2185
     37 CCA        13.8476    3.0951    9.8438 C.2         1 A02       0.1782
     38 OAJ        14.1148    1.9452   10.1508 O.2         1 A02      -0.3969
     39 CBH        13.5375    4.0355   10.9083 C.3         1 A02       0.0374
     40 CAY        14.7309    4.2817   11.8771 C.3         1 A02      -0.0360
     41 CAT        14.5282    5.5191   12.8059 C.3         1 A02      -0.0492
     42 CAV        14.7666    6.9591   12.2313 C.3         1 A02      -0.0326
     43 CBC        15.2328    7.1245   10.7511 C.3         1 A02       0.0310
     44 NBQ        14.8364    8.3866   10.1869 N.am        1 A02      -0.2851
     45 NBT        13.7707    3.4810    8.5709 N.am        1 A02      -0.2656
     46 CCJ        14.0335    2.7327    7.3665 C.3         1 A02       0.1310
     47 CBK        13.1462    1.4613    7.1675 C.3         1 A02      -0.0092
     48 CBB        11.6440    1.4505    7.6259 C.3         1 A02      -0.0156
     49 CBF        10.9610    2.7277    8.1819 C.3         1 A02       0.0627
     50 NBP        10.7403    3.6852    7.1827 N.pl3       1 A02      -0.2723
     51 CBX        10.0915    4.7823    7.3053 C.cat       1 A02       0.2882
     52 NAB         9.5566    5.1883    8.3946 N.pl3       1 A02      -0.2849
     53 NAE         9.9531    5.5214    6.2714 N.pl3       1 A02      -0.2849
     54 CCD        15.4694    2.4550    7.2459 C.2         1 A02       0.2039
     55 OAM        16.1263    3.0541    6.3983 O.2         1 A02      -0.3944
     56 N          16.0638    1.6670    8.1376 N.am        1 A02      -0.2637
     57 CA         17.4641    1.5002    8.4011 C.3         1 A02       0.1307
     58 CB         17.6348    0.1172    9.1075 C.3         1 A02      -0.0092
     59 CG         18.7921   -0.0670   10.1261 C.3         1 A02      -0.0156
     60 CD         20.1691   -0.4636    9.5209 C.3         1 A02       0.0627
     61 NE         21.0139    0.6360    9.3203 N.pl3       1 A02      -0.2723
     62 CZ         21.9835    0.6931    8.4840 C.cat       1 A02       0.2882
     63 NH1        22.2417   -0.2268    7.6162 N.pl3       1 A02      -0.2849
     64 NH2        22.7446    1.7255    8.4673 N.pl3       1 A02      -0.2849
     65 C          17.9139    2.6288    9.1982 C.2         1 A02       0.1992
     66 O          17.5137    2.7682   10.3469 O.2         1 A02      -0.3947
     67 NAF        18.6339    3.6066    8.6920 N.am        1 A02      -0.2990
     68 H1         11.6365    2.6814   13.7242 H           1 A02       0.0996
     69 H2         10.2222    2.6941   18.7904 H           1 A02       0.1820
     70 H3         11.6945    2.1359   18.2106 H           1 A02       0.1820
     71 H4          6.3392    4.6271   16.7778 H           1 A02       0.1349
     72 H5          6.1399    8.3508   11.8846 H           1 A02       0.2102
     73 H6          4.5234    5.5680   13.3950 H           1 A02       0.2101
     74 H7          7.5208    7.5566   13.4567 H           1 A02       0.0673
     75 H8          6.4609    6.5490   15.2208 H           1 A02       0.0678
     76 H9          6.2788    5.5232   11.5145 H           1 A02       0.0869
     77 H10         6.1164    3.9524   13.8606 H           1 A02       0.0998
     78 H11         9.5526   10.3953    6.8720 H           1 A02       0.0502
     79 H12         9.9182   11.2097    8.3836 H           1 A02       0.0502
     80 H13         9.3099    8.1980    8.3293 H           1 A02       0.0290
     81 H14         8.0312    9.4100    8.2904 H           1 A02       0.0290
     82 H15         8.1473    8.8388   10.5482 H           1 A02       0.0267
     83 H16         8.9177   10.4034   10.4390 H           1 A02       0.0267
     84 H17        10.1629    9.0883   12.0152 H           1 A02       0.0285
     85 H18        11.1802    9.2604   10.5969 H           1 A02       0.0285
     86 H19        11.3866    7.0106   11.4597 H           1 A02       0.0520
     87 H20        10.5784    6.9043    9.8945 H           1 A02       0.0520
     88 H21         9.5810    6.3146   12.5286 H           1 A02       0.1851
     89 H22        11.8993   10.6335    9.3983 H           1 A02       0.1883
     90 H23        14.0509   10.6385    9.3679 H           1 A02       0.0800
     91 H24        13.7500   10.7821    6.6479 H           1 A02       0.0312
     92 H25        14.5146    9.2203    6.7489 H           1 A02       0.0312
     93 H26        16.4971   10.3454    6.7696 H           1 A02       0.0269
     94 H27        16.1562   10.6947    8.4462 H           1 A02       0.0269
     95 H28        16.3385   12.9104    7.9021 H           1 A02       0.0317
     96 H29        14.7567   12.7700    7.1519 H           1 A02       0.0317
     97 H30        16.0077   12.0971    4.9662 H           1 A02       0.0813
     98 H31        17.4935   12.5934    5.8033 H           1 A02       0.0813
     99 H32        16.7784   14.4174    4.6268 H           1 A02       0.1994
    100 H33        16.2826   14.7434    6.1922 H           1 A02       0.1994
    101 H34        15.1802   14.2264    5.0662 H           1 A02       0.1994
    102 H35        12.6900    3.6402   11.4718 H           1 A02       0.0502
    103 H36        13.2091    4.9838   10.4819 H           1 A02       0.0502
    104 H37        15.6627    4.4052   11.3219 H           1 A02       0.0290
    105 H38        14.8564    3.3902   12.5015 H           1 A02       0.0290
    106 H39        15.2008    5.3997   13.6623 H           1 A02       0.0267
    107 H40        13.5151    5.4756   13.2209 H           1 A02       0.0267
    108 H41        15.5232    7.4467   12.8551 H           1 A02       0.0285
    109 H42        13.8447    7.5336   12.3789 H           1 A02       0.0285
    110 H43        14.8668    6.3014   10.1448 H           1 A02       0.0520
    111 H44        16.3238    7.0737   10.7174 H           1 A02       0.0520
    112 H45        15.2682    9.1723   10.5608 H           1 A02       0.1851
    113 H46        13.5320    4.4156    8.4361 H           1 A02       0.1883
    114 H47        13.7546    3.4131    6.5572 H           1 A02       0.0800
    115 H48        13.6341    0.6182    7.6653 H           1 A02       0.0313
    116 H49        13.1641    1.2208    6.0981 H           1 A02       0.0313
    117 H50        11.5660    0.7044    8.4236 H           1 A02       0.0301
    118 H51        11.0297    1.0796    6.7950 H           1 A02       0.0301
    119 H52        11.5517    3.1514    9.0013 H           1 A02       0.0689
    120 H53         9.9828    2.4283    8.5873 H           1 A02       0.0689
    121 H54        11.0901    3.5045    6.3303 H           1 A02       0.2642
    122 H55         9.0851    5.9981    8.4102 H           1 A02       0.2615
    123 H56         9.6279    4.6755    9.1758 H           1 A02       0.2615
    124 H57        10.3009    5.2427    5.4461 H           1 A02       0.2615
    125 H58         9.4719    6.3257    6.3242 H           1 A02       0.2615
    126 H59        15.4700    1.2082    8.7540 H           1 A02       0.1883
    127 H60        18.0105    1.4676    7.4488 H           1 A02       0.0800
    128 H61        17.7271   -0.6512    8.3367 H           1 A02       0.0313
    129 H62        16.7157   -0.1073    9.6557 H           1 A02       0.0313
    130 H63        18.4939   -0.8744   10.8002 H           1 A02       0.0301
    131 H64        18.8956    0.8312   10.7354 H           1 A02       0.0301
    132 H65        19.9990   -1.0099    8.5927 H           1 A02       0.0689
    133 H66        20.6722   -1.1421   10.2184 H           1 A02       0.0689
    134 H67        20.8920    1.3816    9.8723 H           1 A02       0.2642
    135 H68        22.9599   -0.1095    7.0422 H           1 A02       0.2615
    136 H69        21.7255   -1.0009    7.5854 H           1 A02       0.2615
    137 H70        22.5873    2.4296    9.0587 H           1 A02       0.2615
    138 H71        23.4414    1.7654    7.8486 H           1 A02       0.2615
    139 H72        18.8205    4.3853    9.2381 H           1 A02       0.1815
    140 H73        18.9184    3.5768    7.7637 H           1 A02       0.1815
@<TRIPOS>BOND
     1     2     1  ar
     2     6     1  ar
     3     3     2  ar
     4     4     3  ar
     5     4     5  ar
     6    10     4   1
     7     5     6  ar
     8     8     5   1
     9     6     7   1
    10     9     8   2
    11    10     9   1
    12    19    10   1
    13    15    11   2
    14    16    12   1
    15    17    13   1
    16    18    14   1
    17    14    19   1
    18    15    18   1
    19    27    15  am
    20    16    17   1
    21    18    16   1
    22    17    19   1
    23    20    21   2
    24    20    22   1
    25    28    20  am
    26    22    23   1
    27    23    24   1
    28    24    25   1
    29    25    26   1
    30    26    27   1
    31    29    28   1
    32    30    29   1
    33    29    32   1
    34    30    31   2
    35    44    30  am
    36    32    33   1
    37    33    34   1
    38    34    35   1
    39    35    36   1
    40    37    38   2
    41    39    37   1
    42    37    45  am
    43    40    39   1
    44    41    40   1
    45    42    41   1
    46    43    42   1
    47    43    44   1
    48    45    46   1
    49    46    47   1
    50    46    54   1
    51    47    48   1
    52    48    49   1
    53    49    50   1
    54    50    51  ar
    55    51    52  ar
    56    51    53  ar
    57    54    55   2
    58    54    56  am
    59    56    57   1
    60    57    58   1
    61    57    65   1
    62    58    59   1
    63    59    60   1
    64    60    61   1
    65    61    62  ar
    66    62    63  ar
    67    62    64  ar
    68    65    66   2
    69    65    67  am
    70     2    68   1
    71     7    69   1
    72     7    70   1
    73     9    71   1
    74    12    72   1
    75    13    73   1
    76    16    74   1
    77    17    75   1
    78    18    76   1
    79    19    77   1
    80    22    78   1
    81    22    79   1
    82    23    80   1
    83    23    81   1
    84    24    82   1
    85    24    83   1
    86    25    84   1
    87    25    85   1
    88    26    86   1
    89    26    87   1
    90    27    88   1
    91    28    89   1
    92    29    90   1
    93    32    91   1
    94    32    92   1
    95    33    93   1
    96    33    94   1
    97    34    95   1
    98    34    96   1
    99    35    97   1
   100    35    98   1
   101    36    99   1
   102    36   100   1
   103    36   101   1
   104    39   102   1
   105    39   103   1
   106    40   104   1
   107    40   105   1
   108    41   106   1
   109    41   107   1
   110    42   108   1
   111    42   109   1
   112    43   110   1
   113    43   111   1
   114    44   112   1
   115    45   113   1
   116    46   114   1
   117    47   115   1
   118    47   116   1
   119    48   117   1
   120    48   118   1
   121    49   119   1
   122    49   120   1
   123    50   121   1
   124    52   122   1
   125    52   123   1
   126    53   124   1
   127    53   125   1
   128    56   126   1
   129    57   127   1
   130    58   128   1
   131    58   129   1
   132    59   130   1
   133    59   131   1
   134    60   132   1
   135    60   133   1
   136    61   134   1
   137    63   135   1
   138    63   136   1
   139    64   137   1
   140    64   138   1
   141    67   139   1
   142    67   140   1
@<TRIPOS>SUBSTRUCTURE
     1  A02      2

