@<TRIPOS>MOLECULE
3ag9_ligand_094
   140   142
SMALL
GAST_HUCK
****
This file was generated by PARSER (from files_GN.cpp)

@<TRIPOS>ATOM
      1 N1          9.8922   15.7602   -0.1643 N.ar        1 A02      -0.2698
      2 C2         11.1497   16.2036    0.1195 C.ar        1 A02       0.0533
      3 N3         11.7923   15.7696    1.2376 N.ar        1 A02      -0.2714
      4 C4         11.1779   14.8949    2.0738 C.ar        1 A02       0.1613
      5 C5          9.8910   14.4361    1.8053 C.ar        1 A02       0.1045
      6 C6          9.2380   14.8836    0.6470 C.ar        1 A02       0.1298
      7 N6          8.0005   14.4695    0.3290 N.pl3       1 A02      -0.3152
      8 N7          9.5176   13.6075    2.7927 N.2         1 A02      -0.2958
      9 C8         10.5517   13.5543    3.6498 C.2         1 A02       0.1123
     10 N9         11.5794   14.3247    3.2254 N.pl3       1 A02      -0.1918
     11 OAL        12.2672   13.7934    7.6655 O.2         1 A02      -0.3941
     12 OAN        15.1467   15.7593    5.4465 O.3         1 A02      -0.3840
     13 OAO        12.9187   16.9786    4.3256 O.3         1 A02      -0.3834
     14 OBV        13.2447   13.3669    4.6318 O.3         1 A02      -0.3181
     15 CCC        13.0141   13.1295    6.9554 C.2         1 A02       0.2080
     16 CCK        13.8691   15.3116    5.9020 C.3         1 A02       0.1295
     17 CCL        12.7559   15.6884    4.9169 C.3         1 A02       0.1408
     18 CCM        13.8004   13.7601    5.8988 C.3         1 A02       0.1788
     19 CCN        12.8271   14.5341    3.8991 C.3         1 A02       0.2035
     20 CBZ        13.5031    6.8333   11.8470 C.2         1 A02       0.1782
     21 OAI        14.3394    6.2756   11.1493 O.2         1 A02      -0.3969
     22 CBG        13.5396    8.2872   11.9228 C.3         1 A02       0.0374
     23 CAX        13.7797    9.0186   10.5705 C.3         1 A02      -0.0360
     24 CAU        12.6545    8.8243    9.5139 C.3         1 A02      -0.0492
     25 CAW        12.9140    9.5913    8.1836 C.3         1 A02      -0.0326
     26 CBD        12.5815   11.1044    8.2569 C.3         1 A02       0.0310
     27 NBR        13.1605   11.8285    7.1652 N.am        1 A02      -0.2847
     28 NBS        12.6313    6.1468   12.5796 N.am        1 A02      -0.2656
     29 CCI        12.3801    4.7245   12.6040 C.3         1 A02       0.1308
     30 CCB        11.4534    4.3798   11.5268 C.2         1 A02       0.2016
     31 OAK        10.3024    4.0618   11.8062 O.2         1 A02      -0.3945
     32 CBJ        13.6639    3.8319   12.6522 C.3         1 A02      -0.0122
     33 CAZ        13.4488    2.3243   13.0091 C.3         1 A02      -0.0440
     34 CAS        14.0382    1.8479   14.3705 C.3         1 A02      -0.0124
     35 CAR        13.0965    1.9762   15.5933 C.3         1 A02      -0.0354
     36 NAC        11.8850    1.1549   15.4543 N.4         1 A02       0.2185
     37 CCA        15.1231    2.1718    5.5971 C.2         1 A02       0.1782
     38 OAJ        15.5380    1.3398    4.7972 O.2         1 A02      -0.3969
     39 CBH        13.8493    1.9143    6.2651 C.3         1 A02       0.0374
     40 CAY        12.9320    3.1593    6.4652 C.3         1 A02      -0.0360
     41 CAT        11.4837    2.8118    6.9258 C.3         1 A02      -0.0492
     42 CAV        11.2719    2.8110    8.4688 C.3         1 A02      -0.0326
     43 CBC        11.0669    4.2281    9.0854 C.3         1 A02       0.0310
     44 NBQ        11.8549    4.4280   10.2623 N.am        1 A02      -0.2851
     45 NBT        15.8534    3.2251    5.9516 N.am        1 A02      -0.2656
     46 CCJ        17.2334    3.5307    5.6543 C.3         1 A02       0.1310
     47 CBK        17.6533    3.3361    4.1543 C.3         1 A02      -0.0092
     48 CBB        18.9945    4.0133    3.7136 C.3         1 A02      -0.0156
     49 CBF        18.8547    5.3357    2.8961 C.3         1 A02       0.0627
     50 NBP        18.6911    5.1371    1.5170 N.pl3       1 A02      -0.2723
     51 CBX        19.6040    4.9438    0.6379 C.cat       1 A02       0.2882
     52 NAB        20.8612    4.9316    0.8791 N.pl3       1 A02      -0.2849
     53 NAE        19.2464    4.7562   -0.5726 N.pl3       1 A02      -0.2849
     54 CCD        18.1452    2.8851    6.6105 C.2         1 A02       0.2039
     55 OAM        19.3209    3.2300    6.6001 O.2         1 A02      -0.3944
     56 N          17.7373    1.9930    7.5160 N.am        1 A02      -0.2637
     57 CA         18.5427    1.4144    8.5571 C.3         1 A02       0.1307
     58 CB         17.8865    0.1054    9.0913 C.3         1 A02      -0.0092
     59 CG         18.6656   -0.6410   10.2166 C.3         1 A02      -0.0156
     60 CD         19.9611   -1.3763    9.7689 C.3         1 A02       0.0627
     61 NE         21.0401   -0.5394    9.4629 N.pl3       1 A02      -0.2723
     62 CZ         21.9074   -0.0289   10.2615 C.cat       1 A02       0.2882
     63 NH1        21.9360   -0.2071   11.5215 N.pl3       1 A02      -0.2849
     64 NH2        22.8135    0.7177    9.7566 N.pl3       1 A02      -0.2849
     65 C          18.7478    2.3955    9.6149 C.2         1 A02       0.1992
     66 O          17.8654    2.6362   10.4258 O.2         1 A02      -0.3947
     67 NAF        19.8366    3.1288    9.6636 N.am        1 A02      -0.2990
     68 H1         11.6089   16.8624   -0.5092 H           1 A02       0.0996
     69 H2          7.5347   13.8429    0.9046 H           1 A02       0.1820
     70 H3          7.5733   14.7913   -0.4798 H           1 A02       0.1820
     71 H4         10.5458   13.0052    4.5125 H           1 A02       0.1349
     72 H5         15.7375   15.6387    6.2214 H           1 A02       0.2102
     73 H6         13.7951   16.9616    3.8874 H           1 A02       0.2101
     74 H7         13.6934   15.7467    6.8885 H           1 A02       0.0673
     75 H8         11.7915   15.6708    5.4345 H           1 A02       0.0678
     76 H9         14.8198   13.3672    5.9678 H           1 A02       0.0869
     77 H10        13.6135   14.7464    3.1679 H           1 A02       0.0998
     78 H11        14.3495    8.5612   12.6033 H           1 A02       0.0502
     79 H12        12.6124    8.6724   12.3584 H           1 A02       0.0502
     80 H13        14.7270    8.6733   10.1440 H           1 A02       0.0290
     81 H14        13.8945   10.0820   10.7875 H           1 A02       0.0290
     82 H15        11.6956    9.1352    9.9341 H           1 A02       0.0267
     83 H16        12.5824    7.7612    9.2754 H           1 A02       0.0267
     84 H17        12.2955    9.1479    7.3966 H           1 A02       0.0285
     85 H18        13.9588    9.4478    7.8880 H           1 A02       0.0285
     86 H19        12.9684   11.5294    9.1821 H           1 A02       0.0520
     87 H20        11.4978   11.2289    8.2465 H           1 A02       0.0520
     88 H21        13.7686   11.3483    6.5797 H           1 A02       0.1851
     89 H22        12.0625    6.6740   13.1652 H           1 A02       0.1883
     90 H23        11.8729    4.5608   13.5590 H           1 A02       0.0800
     91 H24        14.3679    4.2848   13.3591 H           1 A02       0.0312
     92 H25        14.1513    3.8661   11.6736 H           1 A02       0.0312
     93 H26        13.9449    1.7346   12.2337 H           1 A02       0.0269
     94 H27        12.3901    2.0636   12.9537 H           1 A02       0.0269
     95 H28        14.9569    2.4028   14.5819 H           1 A02       0.0317
     96 H29        14.3208    0.7954   14.2793 H           1 A02       0.0317
     97 H30        12.8118    3.0171   15.7510 H           1 A02       0.0813
     98 H31        13.6305    1.6312   16.4828 H           1 A02       0.0813
     99 H32        11.3781    1.1458   16.3419 H           1 A02       0.1994
    100 H33        12.1431    0.1975   15.2061 H           1 A02       0.1994
    101 H34        11.2822    1.5402   14.7260 H           1 A02       0.1994
    102 H35        14.0698    1.4798    7.2434 H           1 A02       0.0502
    103 H36        13.2840    1.1653    5.7002 H           1 A02       0.0502
    104 H37        12.8723    3.6981    5.5173 H           1 A02       0.0290
    105 H38        13.3887    3.8389    7.1907 H           1 A02       0.0290
    106 H39        11.2001    1.8326    6.5311 H           1 A02       0.0267
    107 H40        10.7920    3.5329    6.4836 H           1 A02       0.0267
    108 H41        12.1106    2.2995    8.9456 H           1 A02       0.0285
    109 H42        10.3784    2.2195    8.6883 H           1 A02       0.0285
    110 H43        10.0010    4.3889    9.2772 H           1 A02       0.0520
    111 H44        11.3743    5.0069    8.3829 H           1 A02       0.0520
    112 H45        12.7878    4.6441   10.1105 H           1 A02       0.1851
    113 H46        15.4482    3.8107    6.6096 H           1 A02       0.1883
    114 H47        17.2978    4.6053    5.8478 H           1 A02       0.0800
    115 H48        16.8462    3.7121    3.5172 H           1 A02       0.0313
    116 H49        17.7279    2.2589    3.9644 H           1 A02       0.0313
    117 H50        19.5740    3.2924    3.1276 H           1 A02       0.0301
    118 H51        19.5969    4.2451    4.5941 H           1 A02       0.0301
    119 H52        19.7283    5.9679    3.0710 H           1 A02       0.0689
    120 H53        17.9903    5.8944    3.2659 H           1 A02       0.0689
    121 H54        17.8107    5.1602    1.1995 H           1 A02       0.2642
    122 H55        21.4674    4.7871    0.1837 H           1 A02       0.2615
    123 H56        21.1800    5.0759    1.7447 H           1 A02       0.2615
    124 H57        18.3406    4.7548   -0.8008 H           1 A02       0.2615
    125 H58        19.8893    4.6085   -1.2333 H           1 A02       0.2615
    126 H59        16.8080    1.7088    7.4831 H           1 A02       0.1883
    127 H60        19.5022    1.1380    8.1131 H           1 A02       0.0800
    128 H61        17.7389   -0.5870    8.2604 H           1 A02       0.0313
    129 H62        16.8893    0.3427    9.4751 H           1 A02       0.0313
    130 H63        17.9898   -1.3933   10.6350 H           1 A02       0.0301
    131 H64        18.9002    0.0539   11.0238 H           1 A02       0.0301
    132 H65        19.7360   -1.9529    8.8695 H           1 A02       0.0689
    133 H66        20.2552   -2.0987   10.5386 H           1 A02       0.0689
    134 H67        21.1566   -0.3420    8.5559 H           1 A02       0.2642
    135 H68        22.6109    0.1881   12.0367 H           1 A02       0.2615
    136 H69        21.2716   -0.7057   11.9470 H           1 A02       0.2615
    137 H70        22.8311    0.8838    8.8360 H           1 A02       0.2615
    138 H71        23.4581    1.1111   10.3129 H           1 A02       0.2615
    139 H72        19.9178    3.8063   10.3508 H           1 A02       0.1815
    140 H73        20.5517    2.9996    9.0217 H           1 A02       0.1815
@<TRIPOS>BOND
     1     2     1  ar
     2     6     1  ar
     3     3     2  ar
     4     4     3  ar
     5     4     5  ar
     6    10     4   1
     7     5     6  ar
     8     8     5   1
     9     6     7   1
    10     9     8   2
    11    10     9   1
    12    19    10   1
    13    15    11   2
    14    16    12   1
    15    17    13   1
    16    18    14   1
    17    14    19   1
    18    15    18   1
    19    27    15  am
    20    16    17   1
    21    18    16   1
    22    17    19   1
    23    20    21   2
    24    20    22   1
    25    28    20  am
    26    22    23   1
    27    23    24   1
    28    24    25   1
    29    25    26   1
    30    26    27   1
    31    29    28   1
    32    30    29   1
    33    29    32   1
    34    30    31   2
    35    44    30  am
    36    32    33   1
    37    33    34   1
    38    34    35   1
    39    35    36   1
    40    37    38   2
    41    39    37   1
    42    37    45  am
    43    40    39   1
    44    41    40   1
    45    42    41   1
    46    43    42   1
    47    43    44   1
    48    45    46   1
    49    46    47   1
    50    46    54   1
    51    47    48   1
    52    48    49   1
    53    49    50   1
    54    50    51  ar
    55    51    52  ar
    56    51    53  ar
    57    54    55   2
    58    54    56  am
    59    56    57   1
    60    57    58   1
    61    57    65   1
    62    58    59   1
    63    59    60   1
    64    60    61   1
    65    61    62  ar
    66    62    63  ar
    67    62    64  ar
    68    65    66   2
    69    65    67  am
    70     2    68   1
    71     7    69   1
    72     7    70   1
    73     9    71   1
    74    12    72   1
    75    13    73   1
    76    16    74   1
    77    17    75   1
    78    18    76   1
    79    19    77   1
    80    22    78   1
    81    22    79   1
    82    23    80   1
    83    23    81   1
    84    24    82   1
    85    24    83   1
    86    25    84   1
    87    25    85   1
    88    26    86   1
    89    26    87   1
    90    27    88   1
    91    28    89   1
    92    29    90   1
    93    32    91   1
    94    32    92   1
    95    33    93   1
    96    33    94   1
    97    34    95   1
    98    34    96   1
    99    35    97   1
   100    35    98   1
   101    36    99   1
   102    36   100   1
   103    36   101   1
   104    39   102   1
   105    39   103   1
   106    40   104   1
   107    40   105   1
   108    41   106   1
   109    41   107   1
   110    42   108   1
   111    42   109   1
   112    43   110   1
   113    43   111   1
   114    44   112   1
   115    45   113   1
   116    46   114   1
   117    47   115   1
   118    47   116   1
   119    48   117   1
   120    48   118   1
   121    49   119   1
   122    49   120   1
   123    50   121   1
   124    52   122   1
   125    52   123   1
   126    53   124   1
   127    53   125   1
   128    56   126   1
   129    57   127   1
   130    58   128   1
   131    58   129   1
   132    59   130   1
   133    59   131   1
   134    60   132   1
   135    60   133   1
   136    61   134   1
   137    63   135   1
   138    63   136   1
   139    64   137   1
   140    64   138   1
   141    67   139   1
   142    67   140   1
@<TRIPOS>SUBSTRUCTURE
     1  A02      2

