@<TRIPOS>MOLECULE
3ag9_ligand_032
   140   142
SMALL
GAST_HUCK
****
This file was generated by PARSER (from files_GN.cpp)

@<TRIPOS>ATOM
      1 N1         22.3917    1.6555    1.1927 N.ar        1 A02      -0.2698
      2 C2         21.0885    1.9251    1.4800 C.ar        1 A02       0.0533
      3 N3         20.6713    3.2069    1.6278 N.ar        1 A02      -0.2714
      4 C4         21.5576    4.2270    1.5035 C.ar        1 A02       0.1613
      5 C5         22.8988    3.9780    1.2114 C.ar        1 A02       0.1045
      6 C6         23.3153    2.6474    1.0487 C.ar        1 A02       0.1298
      7 N6         24.5896    2.3356    0.7592 N.pl3       1 A02      -0.3152
      8 N7         23.5503    5.1448    1.1470 N.2         1 A02      -0.2958
      9 C8         22.6369    6.1036    1.4000 C.2         1 A02       0.1123
     10 N9         21.4163    5.5630    1.6203 N.pl3       1 A02      -0.1918
     11 OAL        16.0812    4.4342    2.5913 O.2         1 A02      -0.3941
     12 OAN        16.9163    6.1213    0.2895 O.3         1 A02      -0.3840
     13 OAO        18.9773    7.8756    0.4658 O.3         1 A02      -0.3834
     14 OBV        19.4126    5.5855    2.8548 O.3         1 A02      -0.3181
     15 CCC        17.2457    4.5142    2.9609 C.2         1 A02       0.2080
     16 CCK        18.1160    5.6247    0.8860 C.3         1 A02       0.1295
     17 CCL        19.3471    6.5019    0.6168 C.3         1 A02       0.1408
     18 CCM        18.0407    5.6109    2.4301 C.3         1 A02       0.1788
     19 CCN        20.2083    6.2913    1.8897 C.3         1 A02       0.2035
     20 CBZ        17.8372    3.0287    7.7388 C.2         1 A02       0.1782
     21 OAI        18.4356    2.4402    6.8405 O.2         1 A02      -0.3969
     22 CBG        16.5705    2.5248    8.2497 C.3         1 A02       0.0374
     23 CAX        15.7990    1.4794    7.3909 C.3         1 A02      -0.0360
     24 CAU        15.0780    2.0452    6.1307 C.3         1 A02      -0.0492
     25 CAW        15.8242    3.1397    5.3189 C.3         1 A02      -0.0326
     26 CBD        17.0439    2.6190    4.5178 C.3         1 A02       0.0310
     27 NBR        17.7474    3.6603    3.8404 N.am        1 A02      -0.2847
     28 NBS        18.3992    4.0701    8.3402 N.am        1 A02      -0.2656
     29 CCI        19.6555    4.7012    8.0401 C.3         1 A02       0.1308
     30 CCB        19.5081    6.1555    7.9714 C.2         1 A02       0.2016
     31 OAK        18.3956    6.6770    8.0189 O.2         1 A02      -0.3945
     32 CBJ        20.6839    4.2866    9.1478 C.3         1 A02      -0.0122
     33 CAZ        20.7562    2.7707    9.4764 C.3         1 A02      -0.0440
     34 CAS        22.0726    2.0828    9.0043 C.3         1 A02      -0.0124
     35 CAR        22.0794    0.5494    9.1978 C.3         1 A02      -0.0354
     36 NAC        22.2758    0.1579   10.6014 N.4         1 A02       0.2185
     37 CCA        17.1188   10.8243    4.4455 C.2         1 A02       0.1782
     38 OAJ        17.1928   11.6661    3.5523 O.2         1 A02      -0.3969
     39 CBH        18.0921    9.7523    4.4327 C.3         1 A02       0.0374
     40 CAY        18.9670    9.7450    5.7227 C.3         1 A02      -0.0360
     41 CAT        20.2964    8.9584    5.5597 C.3         1 A02      -0.0492
     42 CAV        21.2274    9.0153    6.8058 C.3         1 A02      -0.0326
     43 CBC        20.6765    8.3304    8.0798 C.3         1 A02       0.0310
     44 NBQ        20.6005    6.9115    7.9335 N.am        1 A02      -0.2851
     45 NBT        16.2526   10.9178    5.4554 N.am        1 A02      -0.2656
     46 CCJ        15.3515   11.9740    5.8367 C.3         1 A02       0.1310
     47 CBK        13.9408   11.3807    6.1626 C.3         1 A02      -0.0092
     48 CBB        12.9239   12.4257    6.7127 C.3         1 A02      -0.0156
     49 CBF        11.7790   11.8380    7.5800 C.3         1 A02       0.0627
     50 NBP        10.9864   10.9300    6.8729 N.pl3       1 A02      -0.2723
     51 CBX         9.8888   10.3988    7.2714 C.cat       1 A02       0.2882
     52 NAB         9.3164   10.6553    8.3854 N.pl3       1 A02      -0.2849
     53 NAE         9.3252    9.5521    6.4987 N.pl3       1 A02      -0.2849
     54 CCD        15.2600   13.1243    4.9440 C.2         1 A02       0.2039
     55 OAM        14.8945   12.9560    3.7855 O.2         1 A02      -0.3944
     56 N          15.5319   14.3443    5.4047 N.am        1 A02      -0.2637
     57 CA         15.5071   15.5766    4.6724 C.3         1 A02       0.1307
     58 CB         16.2399   16.6864    5.4929 C.3         1 A02      -0.0092
     59 CG         17.7240   16.3535    5.8241 C.3         1 A02      -0.0156
     60 CD         18.3997   17.4089    6.7403 C.3         1 A02       0.0627
     61 NE         17.8404   17.4116    8.0233 N.pl3       1 A02      -0.2723
     62 CZ         17.9992   18.3012    8.9325 C.cat       1 A02       0.2882
     63 NH1        18.7166   19.3550    8.8154 N.pl3       1 A02      -0.2849
     64 NH2        17.3917   18.1412   10.0413 N.pl3       1 A02      -0.2849
     65 C          14.1412   15.9809    4.3645 C.2         1 A02       0.1992
     66 O          13.8608   16.4607    3.2717 O.2         1 A02      -0.3947
     67 NAF        13.1619   15.8289    5.2307 N.am        1 A02      -0.2990
     68 H1         20.4253    1.1588    1.5888 H           1 A02       0.0996
     69 H2         25.2509    3.0381    0.6524 H           1 A02       0.1820
     70 H3         24.8488    1.4074    0.6589 H           1 A02       0.1820
     71 H4         22.8514    7.0995    1.4058 H           1 A02       0.1349
     72 H5         17.0680    6.0433   -0.6767 H           1 A02       0.2102
     73 H6         19.8111    8.3404    0.2455 H           1 A02       0.2101
     74 H7         18.3034    4.6114    0.5081 H           1 A02       0.0673
     75 H8         19.8574    6.1765   -0.2940 H           1 A02       0.0678
     76 H9         17.6010    6.5535    2.7790 H           1 A02       0.0869
     77 H10        20.4556    7.2618    2.3313 H           1 A02       0.0998
     78 H11        15.9055    3.3718    8.4324 H           1 A02       0.0502
     79 H12        16.7852    2.0792    9.2215 H           1 A02       0.0502
     80 H13        15.0202    1.0415    8.0225 H           1 A02       0.0290
     81 H14        16.4565    0.6551    7.1113 H           1 A02       0.0290
     82 H15        14.1242    2.4688    6.4574 H           1 A02       0.0267
     83 H16        14.8416    1.2130    5.4622 H           1 A02       0.0267
     84 H17        16.1279    3.9406    5.9955 H           1 A02       0.0285
     85 H18        15.1072    3.5826    4.6309 H           1 A02       0.0285
     86 H19        16.7260    1.8638    3.8022 H           1 A02       0.0520
     87 H20        17.7544    2.1579    5.2038 H           1 A02       0.0520
     88 H21        18.6818    3.7777    4.0630 H           1 A02       0.1851
     89 H22        17.9204    4.4595    9.0847 H           1 A02       0.1883
     90 H23        20.0490    4.3688    7.0759 H           1 A02       0.0800
     91 H24        20.4162    4.8110   10.0667 H           1 A02       0.0312
     92 H25        21.6889    4.6331    8.8810 H           1 A02       0.0312
     93 H26        19.8918    2.2455    9.0580 H           1 A02       0.0269
     94 H27        20.6889    2.6604   10.5644 H           1 A02       0.0269
     95 H28        22.9151    2.5117    9.5615 H           1 A02       0.0317
     96 H29        22.2274    2.2892    7.9396 H           1 A02       0.0317
     97 H30        22.8948    0.1159    8.6106 H           1 A02       0.0813
     98 H31        21.1399    0.1183    8.8421 H           1 A02       0.0813
     99 H32        22.3612   -0.8570   10.6602 H           1 A02       0.1994
    100 H33        21.4673    0.4487   11.1585 H           1 A02       0.1994
    101 H34        23.1269    0.5961   10.9693 H           1 A02       0.1994
    102 H35        18.7505    9.8488    3.5609 H           1 A02       0.0502
    103 H36        17.5742    8.7922    4.3437 H           1 A02       0.0502
    104 H37        18.3814    9.2985    6.5293 H           1 A02       0.0290
    105 H38        19.2102   10.7750    6.0086 H           1 A02       0.0290
    106 H39        20.8500    9.3967    4.7240 H           1 A02       0.0267
    107 H40        20.0810    7.9178    5.3050 H           1 A02       0.0267
    108 H41        21.4324   10.0624    7.0424 H           1 A02       0.0285
    109 H42        22.1831    8.5491    6.5499 H           1 A02       0.0285
    110 H43        19.7191    8.7764    8.3622 H           1 A02       0.0520
    111 H44        21.3644    8.5208    8.9027 H           1 A02       0.0520
    112 H45        21.4416    6.4394    7.8427 H           1 A02       0.1851
    113 H46        16.3134   10.1905    6.0961 H           1 A02       0.1883
    114 H47        15.7494   12.3133    6.7991 H           1 A02       0.0800
    115 H48        14.0665   10.5927    6.9105 H           1 A02       0.0313
    116 H49        13.5240   10.9149    5.2652 H           1 A02       0.0313
    117 H50        12.4788   12.9715    5.8765 H           1 A02       0.0301
    118 H51        13.4540   13.1541    7.3301 H           1 A02       0.0301
    119 H52        11.1581   12.6669    7.9361 H           1 A02       0.0689
    120 H53        12.2156   11.3414    8.4500 H           1 A02       0.0689
    121 H54        11.2933   10.6680    6.0294 H           1 A02       0.2642
    122 H55         8.5139   10.2290    8.6052 H           1 A02       0.2615
    123 H56         9.6822   11.2797    8.9787 H           1 A02       0.2615
    124 H57         9.7134    9.3355    5.6766 H           1 A02       0.2615
    125 H58         8.5242    9.1437    6.7550 H           1 A02       0.2615
    126 H59        15.7670   14.4068    6.3441 H           1 A02       0.1883
    127 H60        16.0680   15.4333    3.7402 H           1 A02       0.0800
    128 H61        15.6926   16.8595    6.4244 H           1 A02       0.0313
    129 H62        16.2234   17.6212    4.9236 H           1 A02       0.0313
    130 H63        18.2886   16.3017    4.8882 H           1 A02       0.0301
    131 H64        17.7936   15.3750    6.3071 H           1 A02       0.0301
    132 H65        18.2943   18.3952    6.2775 H           1 A02       0.0689
    133 H66        19.4668   17.1785    6.8166 H           1 A02       0.0689
    134 H67        17.2784   16.6942    8.2412 H           1 A02       0.2642
    135 H68        18.7588   19.9537    9.5332 H           1 A02       0.2615
    136 H69        19.1900   19.5278    8.0276 H           1 A02       0.2615
    137 H70        16.8598   17.3825   10.1855 H           1 A02       0.2615
    138 H71        17.4809   18.7912   10.7101 H           1 A02       0.2615
    139 H72        12.2566   16.0846    4.9962 H           1 A02       0.1815
    140 H73        13.3436   15.4437    6.1027 H           1 A02       0.1815
@<TRIPOS>BOND
     1     2     1  ar
     2     6     1  ar
     3     3     2  ar
     4     4     3  ar
     5     4     5  ar
     6    10     4   1
     7     5     6  ar
     8     8     5   1
     9     6     7   1
    10     9     8   2
    11    10     9   1
    12    19    10   1
    13    15    11   2
    14    16    12   1
    15    17    13   1
    16    18    14   1
    17    14    19   1
    18    15    18   1
    19    27    15  am
    20    16    17   1
    21    18    16   1
    22    17    19   1
    23    20    21   2
    24    20    22   1
    25    28    20  am
    26    22    23   1
    27    23    24   1
    28    24    25   1
    29    25    26   1
    30    26    27   1
    31    29    28   1
    32    30    29   1
    33    29    32   1
    34    30    31   2
    35    44    30  am
    36    32    33   1
    37    33    34   1
    38    34    35   1
    39    35    36   1
    40    37    38   2
    41    39    37   1
    42    37    45  am
    43    40    39   1
    44    41    40   1
    45    42    41   1
    46    43    42   1
    47    43    44   1
    48    45    46   1
    49    46    47   1
    50    46    54   1
    51    47    48   1
    52    48    49   1
    53    49    50   1
    54    50    51  ar
    55    51    52  ar
    56    51    53  ar
    57    54    55   2
    58    54    56  am
    59    56    57   1
    60    57    58   1
    61    57    65   1
    62    58    59   1
    63    59    60   1
    64    60    61   1
    65    61    62  ar
    66    62    63  ar
    67    62    64  ar
    68    65    66   2
    69    65    67  am
    70     2    68   1
    71     7    69   1
    72     7    70   1
    73     9    71   1
    74    12    72   1
    75    13    73   1
    76    16    74   1
    77    17    75   1
    78    18    76   1
    79    19    77   1
    80    22    78   1
    81    22    79   1
    82    23    80   1
    83    23    81   1
    84    24    82   1
    85    24    83   1
    86    25    84   1
    87    25    85   1
    88    26    86   1
    89    26    87   1
    90    27    88   1
    91    28    89   1
    92    29    90   1
    93    32    91   1
    94    32    92   1
    95    33    93   1
    96    33    94   1
    97    34    95   1
    98    34    96   1
    99    35    97   1
   100    35    98   1
   101    36    99   1
   102    36   100   1
   103    36   101   1
   104    39   102   1
   105    39   103   1
   106    40   104   1
   107    40   105   1
   108    41   106   1
   109    41   107   1
   110    42   108   1
   111    42   109   1
   112    43   110   1
   113    43   111   1
   114    44   112   1
   115    45   113   1
   116    46   114   1
   117    47   115   1
   118    47   116   1
   119    48   117   1
   120    48   118   1
   121    49   119   1
   122    49   120   1
   123    50   121   1
   124    52   122   1
   125    52   123   1
   126    53   124   1
   127    53   125   1
   128    56   126   1
   129    57   127   1
   130    58   128   1
   131    58   129   1
   132    59   130   1
   133    59   131   1
   134    60   132   1
   135    60   133   1
   136    61   134   1
   137    63   135   1
   138    63   136   1
   139    64   137   1
   140    64   138   1
   141    67   139   1
   142    67   140   1
@<TRIPOS>SUBSTRUCTURE
     1  A02      2

