@<TRIPOS>MOLECULE
3ag9_ligand_027
   140   142
SMALL
GAST_HUCK
****
This file was generated by PARSER (from files_GN.cpp)

@<TRIPOS>ATOM
      1 N1         18.5837   -0.8594    9.7278 N.ar        1 A02      -0.2698
      2 C2         17.7729    0.0512    9.1191 C.ar        1 A02       0.0533
      3 N3         18.2753    1.2496    8.7182 N.ar        1 A02      -0.2714
      4 C4         19.5869    1.5404    8.9190 C.ar        1 A02       0.1613
      5 C5         20.4298    0.6214    9.5370 C.ar        1 A02       0.1045
      6 C6         19.9021   -0.6095    9.9523 C.ar        1 A02       0.1298
      7 N6         20.6750   -1.5202   10.5618 N.pl3       1 A02      -0.3152
      8 N7         21.6587    1.1496    9.6154 N.2         1 A02      -0.2958
      9 C8         21.5762    2.3727    9.0605 C.2         1 A02       0.1123
     10 N9         20.3202    2.6304    8.6308 N.pl3       1 A02      -0.1918
     11 OAL        17.4121    3.3819    5.1599 O.2         1 A02      -0.3941
     12 OAN        20.0200    6.4133    6.1997 O.3         1 A02      -0.3840
     13 OAO        21.8378    4.4178    6.5841 O.3         1 A02      -0.3834
     14 OBV        18.4718    3.9178    7.8225 O.3         1 A02      -0.3181
     15 CCC        17.1383    4.2899    5.9339 C.2         1 A02       0.2080
     16 CCK        19.5274    5.0862    5.9889 C.3         1 A02       0.1295
     17 CCL        20.4669    4.0265    6.5866 C.3         1 A02       0.1408
     18 CCM        18.1982    4.8470    6.7628 C.3         1 A02       0.1788
     19 CCN        19.8920    3.8500    8.0073 C.3         1 A02       0.2035
     20 CBZ        11.9224    3.9265    8.9184 C.2         1 A02       0.1782
     21 OAI        12.8942    4.2809    9.5709 O.2         1 A02      -0.3969
     22 CBG        11.8070    2.5142    8.5936 C.3         1 A02       0.0374
     23 CAX        12.1379    2.1185    7.1280 C.3         1 A02      -0.0360
     24 CAU        13.5250    2.5872    6.5835 C.3         1 A02      -0.0492
     25 CAW        13.5319    4.0492    6.0479 C.3         1 A02      -0.0326
     26 CBD        14.7829    4.4176    5.2085 C.3         1 A02       0.0310
     27 NBR        15.8989    4.7583    6.0385 N.am        1 A02      -0.2847
     28 NBS        10.9608    4.7682    8.5444 N.am        1 A02      -0.2656
     29 CCI        10.7977    6.1899    8.7432 C.3         1 A02       0.1308
     30 CCB        11.8011    6.8844    9.5594 C.2         1 A02       0.2016
     31 OAK        11.4575    7.3884   10.6225 O.2         1 A02      -0.3945
     32 CBJ        10.6310    6.9317    7.3748 C.3         1 A02      -0.0122
     33 CAZ         9.8602    6.1216    6.2932 C.3         1 A02      -0.0440
     34 CAS         9.5675    6.8955    4.9765 C.3         1 A02      -0.0124
     35 CAR        10.7802    7.5238    4.2432 C.3         1 A02      -0.0354
     36 NAC        11.9197    6.6078    4.1197 N.4         1 A02       0.2185
     37 CCA        14.3848   12.3735    6.0527 C.2         1 A02       0.1782
     38 OAJ        13.5129   12.0092    5.2718 O.2         1 A02      -0.3969
     39 CBH        15.3403   11.4060    6.5705 C.3         1 A02       0.0374
     40 CAY        15.0574   10.9628    8.0471 C.3         1 A02      -0.0360
     41 CAT        14.9105    9.4285    8.2478 C.3         1 A02      -0.0492
     42 CAV        14.2671    9.0744    9.6223 C.3         1 A02      -0.0326
     43 CBC        14.1561    7.5489    9.8691 C.3         1 A02       0.0310
     44 NBQ        13.0656    6.9547    9.1519 N.am        1 A02      -0.2851
     45 NBT        14.4621   13.6336    6.4613 N.am        1 A02      -0.2656
     46 CCJ        13.6320   14.7569    6.1276 C.3         1 A02       0.1310
     47 CBK        12.1086   14.4184    5.9473 C.3         1 A02      -0.0092
     48 CBB        11.3702   13.9742    7.2538 C.3         1 A02      -0.0156
     49 CBF        11.0240   12.4600    7.3288 C.3         1 A02       0.0627
     50 NBP        10.0561   12.0680    6.3951 N.pl3       1 A02      -0.2723
     51 CBX         8.7785   12.0704    6.5414 C.cat       1 A02       0.2882
     52 NAB         8.1615   12.4407    7.5995 N.pl3       1 A02      -0.2849
     53 NAE         8.0729   11.6594    5.5603 N.pl3       1 A02      -0.2849
     54 CCD        14.2487   15.4949    5.0309 C.2         1 A02       0.2039
     55 OAM        13.6633   15.6177    3.9611 O.2         1 A02      -0.3944
     56 N          15.4405   16.0572    5.2132 N.am        1 A02      -0.2637
     57 CA         16.1583   16.8686    4.2628 C.3         1 A02       0.1307
     58 CB         17.6776   16.9797    4.6140 C.3         1 A02      -0.0092
     59 CG         18.0520   17.8092    5.8899 C.3         1 A02      -0.0156
     60 CD         18.6364   16.9636    7.0654 C.3         1 A02       0.0627
     61 NE         18.0112   17.1792    8.2952 N.pl3       1 A02      -0.2723
     62 CZ         18.1317   18.1644    9.1036 C.cat       1 A02       0.2882
     63 NH1        18.8948   19.1747    8.9397 N.pl3       1 A02      -0.2849
     64 NH2        17.4211   18.1216   10.1611 N.pl3       1 A02      -0.2849
     65 C          15.5543   18.1950    4.0730 C.2         1 A02       0.1992
     66 O          15.5636   18.7236    2.9658 O.2         1 A02      -0.3947
     67 NAF        14.9932   18.8707    5.0531 N.am        1 A02      -0.2990
     68 H1         16.7875   -0.1618    8.9715 H           1 A02       0.0996
     69 H2         21.6104   -1.3250   10.7242 H           1 A02       0.1820
     70 H3         20.3017   -2.3677   10.8450 H           1 A02       0.1820
     71 H4         22.3717    3.0135    8.9903 H           1 A02       0.1349
     72 H5         20.1963    6.4783    7.1625 H           1 A02       0.2102
     73 H6         22.0851    4.4651    5.6361 H           1 A02       0.2101
     74 H7         19.4300    4.9401    4.9087 H           1 A02       0.0673
     75 H8         20.3636    3.0872    6.0319 H           1 A02       0.0678
     76 H9         17.8651    5.7849    7.2279 H           1 A02       0.0869
     77 H10        20.1904    4.6915    8.6436 H           1 A02       0.0998
     78 H11        10.7760    2.2096    8.7958 H           1 A02       0.0502
     79 H12        12.4518    1.9194    9.2493 H           1 A02       0.0502
     80 H13        11.3401    2.4696    6.4657 H           1 A02       0.0290
     81 H14        12.1202    1.0218    7.0828 H           1 A02       0.0290
     82 H15        13.7988    1.9219    5.7584 H           1 A02       0.0267
     83 H16        14.2886    2.4732    7.3616 H           1 A02       0.0267
     84 H17        13.4518    4.7484    6.8805 H           1 A02       0.0285
     85 H18        12.6559    4.1858    5.4121 H           1 A02       0.0285
     86 H19        14.5496    5.3077    4.6162 H           1 A02       0.0520
     87 H20        15.0078    3.6118    4.5046 H           1 A02       0.0520
     88 H21        15.7351    5.4440    6.7099 H           1 A02       0.1851
     89 H22        10.2159    4.3445    8.0880 H           1 A02       0.1883
     90 H23         9.8339    6.2804    9.2544 H           1 A02       0.0800
     91 H24        11.6140    7.1902    6.9723 H           1 A02       0.0312
     92 H25        10.0900    7.8671    7.5512 H           1 A02       0.0312
     93 H26         8.8990    5.8093    6.7066 H           1 A02       0.0269
     94 H27        10.4218    5.2202    6.0473 H           1 A02       0.0269
     95 H28         8.8504    7.6963    5.1904 H           1 A02       0.0317
     96 H29         9.0797    6.2004    4.2857 H           1 A02       0.0317
     97 H30        11.1185    8.4214    4.7729 H           1 A02       0.0813
     98 H31        10.4717    7.8287    3.2369 H           1 A02       0.0813
     99 H32        12.5849    6.9680    3.4309 H           1 A02       0.1994
    100 H33        11.5980    5.6794    3.8351 H           1 A02       0.1994
    101 H34        12.3844    6.5359    5.0275 H           1 A02       0.1994
    102 H35        16.3334   11.8678    6.5180 H           1 A02       0.0502
    103 H36        15.3743   10.5262    5.9161 H           1 A02       0.0502
    104 H37        14.1459   11.4326    8.4290 H           1 A02       0.0290
    105 H38        15.8828   11.3070    8.6781 H           1 A02       0.0290
    106 H39        15.9015    8.9703    8.1924 H           1 A02       0.0267
    107 H40        14.2917    9.0120    7.4493 H           1 A02       0.0267
    108 H41        13.2648    9.5177    9.6858 H           1 A02       0.0285
    109 H42        14.8739    9.5063   10.4292 H           1 A02       0.0285
    110 H43        14.0516    7.3489   10.9415 H           1 A02       0.0520
    111 H44        15.0800    7.0632    9.5420 H           1 A02       0.0520
    112 H45        13.2860    6.5170    8.3150 H           1 A02       0.1851
    113 H46        15.2164   13.8463    7.0320 H           1 A02       0.1883
    114 H47        13.6806   15.4269    6.9965 H           1 A02       0.0800
    115 H48        11.9836   13.6554    5.1696 H           1 A02       0.0313
    116 H49        11.6056   15.3248    5.5870 H           1 A02       0.0313
    117 H50        10.4337   14.5340    7.3497 H           1 A02       0.0301
    118 H51        11.9754   14.2190    8.1313 H           1 A02       0.0301
    119 H52        10.7083   12.1999    8.3458 H           1 A02       0.0689
    120 H53        11.9139   11.8685    7.1219 H           1 A02       0.0689
    121 H54        10.3732   11.7465    5.5761 H           1 A02       0.2642
    122 H55         7.2308   12.4149    7.6302 H           1 A02       0.2615
    123 H56         8.6292   12.7397    8.3513 H           1 A02       0.2615
    124 H57         8.4938   11.3836    4.7677 H           1 A02       0.2615
    125 H58         7.1343   11.6411    5.6355 H           1 A02       0.2615
    126 H59        15.8659   15.9047    6.0723 H           1 A02       0.1883
    127 H60        16.1163   16.3396    3.3009 H           1 A02       0.0800
    128 H61        18.1979   17.4177    3.7563 H           1 A02       0.0313
    129 H62        18.0774   15.9691    4.7138 H           1 A02       0.0313
    130 H63        17.1778   18.3674    6.2428 H           1 A02       0.0301
    131 H64        18.8081   18.5639    5.6071 H           1 A02       0.0301
    132 H65        19.7144   17.1458    7.1591 H           1 A02       0.0689
    133 H66        18.5099   15.9028    6.8462 H           1 A02       0.0689
    134 H67        17.4166   16.5095    8.5601 H           1 A02       0.2642
    135 H68        18.9105   19.8411    9.5965 H           1 A02       0.2615
    136 H69        19.4381   19.2490    8.1829 H           1 A02       0.2615
    137 H70        16.8580   17.3889   10.3073 H           1 A02       0.2615
    138 H71        17.4727   18.8136   10.7856 H           1 A02       0.2615
    139 H72        14.6286   19.7537    4.8777 H           1 A02       0.1815
    140 H73        14.9465   18.4908    5.9448 H           1 A02       0.1815
@<TRIPOS>BOND
     1     2     1  ar
     2     6     1  ar
     3     3     2  ar
     4     4     3  ar
     5     4     5  ar
     6    10     4   1
     7     5     6  ar
     8     8     5   1
     9     6     7   1
    10     9     8   2
    11    10     9   1
    12    19    10   1
    13    15    11   2
    14    16    12   1
    15    17    13   1
    16    18    14   1
    17    14    19   1
    18    15    18   1
    19    27    15  am
    20    16    17   1
    21    18    16   1
    22    17    19   1
    23    20    21   2
    24    20    22   1
    25    28    20  am
    26    22    23   1
    27    23    24   1
    28    24    25   1
    29    25    26   1
    30    26    27   1
    31    29    28   1
    32    30    29   1
    33    29    32   1
    34    30    31   2
    35    44    30  am
    36    32    33   1
    37    33    34   1
    38    34    35   1
    39    35    36   1
    40    37    38   2
    41    39    37   1
    42    37    45  am
    43    40    39   1
    44    41    40   1
    45    42    41   1
    46    43    42   1
    47    43    44   1
    48    45    46   1
    49    46    47   1
    50    46    54   1
    51    47    48   1
    52    48    49   1
    53    49    50   1
    54    50    51  ar
    55    51    52  ar
    56    51    53  ar
    57    54    55   2
    58    54    56  am
    59    56    57   1
    60    57    58   1
    61    57    65   1
    62    58    59   1
    63    59    60   1
    64    60    61   1
    65    61    62  ar
    66    62    63  ar
    67    62    64  ar
    68    65    66   2
    69    65    67  am
    70     2    68   1
    71     7    69   1
    72     7    70   1
    73     9    71   1
    74    12    72   1
    75    13    73   1
    76    16    74   1
    77    17    75   1
    78    18    76   1
    79    19    77   1
    80    22    78   1
    81    22    79   1
    82    23    80   1
    83    23    81   1
    84    24    82   1
    85    24    83   1
    86    25    84   1
    87    25    85   1
    88    26    86   1
    89    26    87   1
    90    27    88   1
    91    28    89   1
    92    29    90   1
    93    32    91   1
    94    32    92   1
    95    33    93   1
    96    33    94   1
    97    34    95   1
    98    34    96   1
    99    35    97   1
   100    35    98   1
   101    36    99   1
   102    36   100   1
   103    36   101   1
   104    39   102   1
   105    39   103   1
   106    40   104   1
   107    40   105   1
   108    41   106   1
   109    41   107   1
   110    42   108   1
   111    42   109   1
   112    43   110   1
   113    43   111   1
   114    44   112   1
   115    45   113   1
   116    46   114   1
   117    47   115   1
   118    47   116   1
   119    48   117   1
   120    48   118   1
   121    49   119   1
   122    49   120   1
   123    50   121   1
   124    52   122   1
   125    52   123   1
   126    53   124   1
   127    53   125   1
   128    56   126   1
   129    57   127   1
   130    58   128   1
   131    58   129   1
   132    59   130   1
   133    59   131   1
   134    60   132   1
   135    60   133   1
   136    61   134   1
   137    63   135   1
   138    63   136   1
   139    64   137   1
   140    64   138   1
   141    67   139   1
   142    67   140   1
@<TRIPOS>SUBSTRUCTURE
     1  A02      2

