@<TRIPOS>MOLECULE
3ag9_ligand_078
   140   142
SMALL
GAST_HUCK
****
This file was generated by PARSER (from files_GN.cpp)

@<TRIPOS>ATOM
      1 N1         15.7033   23.2353    4.7256 N.ar        1 A02      -0.2698
      2 C2         14.6028   22.5343    4.3369 C.ar        1 A02       0.0533
      3 N3         14.6285   21.1730    4.3165 N.ar        1 A02      -0.2714
      4 C4         15.7572   20.5127    4.6824 C.ar        1 A02       0.1613
      5 C5         16.8929   21.2100    5.0856 C.ar        1 A02       0.1045
      6 C6         16.8562   22.6153    5.1046 C.ar        1 A02       0.1298
      7 N6         17.9168   23.3389    5.4923 N.pl3       1 A02      -0.3152
      8 N7         17.8476   20.3256    5.4031 N.2         1 A02      -0.2958
      9 C8         17.3117   19.1066    5.2018 C.2         1 A02       0.1123
     10 N9         16.0361   19.2008    4.7638 N.pl3       1 A02      -0.1918
     11 OAL        15.6997   13.8599    3.4088 O.2         1 A02      -0.3941
     12 OAN        13.2896   16.1197    2.3492 O.3         1 A02      -0.3840
     13 OAO        13.8429   18.7677    2.4704 O.3         1 A02      -0.3834
     14 OBV        15.6240   16.8534    4.9041 O.3         1 A02      -0.3181
     15 CCC        15.4550   14.5449    4.3944 C.2         1 A02       0.2080
     16 CCK        14.6093   16.4125    2.8159 C.3         1 A02       0.1295
     17 CCL        14.8949   17.9274    2.9499 C.3         1 A02       0.1408
     18 CCM        14.8279   15.8536    4.2522 C.3         1 A02       0.1788
     19 CCN        15.1331   18.1265    4.4606 C.3         1 A02       0.2035
     20 CBZ        12.9298    9.1935    8.3628 C.2         1 A02       0.1782
     21 OAI        13.0144    8.3349    7.4938 O.2         1 A02      -0.3969
     22 CBG        14.1513    9.6821    8.9905 C.3         1 A02       0.0374
     23 CAX        14.7877   10.8690    8.2056 C.3         1 A02      -0.0360
     24 CAU        15.2719   10.4912    6.7712 C.3         1 A02      -0.0492
     25 CAW        15.2034   11.6508    5.7392 C.3         1 A02      -0.0326
     26 CBD        16.2184   12.8018    5.9807 C.3         1 A02       0.0310
     27 NBR        15.6938   14.0843    5.6188 N.am        1 A02      -0.2847
     28 NBS        11.7664    9.7662    8.6513 N.am        1 A02      -0.2656
     29 CCI        10.5294    9.6379    7.9226 C.3         1 A02       0.1308
     30 CCB         9.8689    8.3463    8.1097 C.2         1 A02       0.2016
     31 OAK         9.2542    7.8647    7.1639 O.2         1 A02      -0.3945
     32 CBJ         9.5810   10.8113    8.3296 C.3         1 A02      -0.0122
     33 CAZ         8.4180   11.1339    7.3469 C.3         1 A02      -0.0440
     34 CAS         8.7756   12.0558    6.1469 C.3         1 A02      -0.0124
     35 CAR         9.3352   13.4585    6.5017 C.3         1 A02      -0.0354
     36 NAC         8.5325   14.1824    7.5026 N.4         1 A02       0.2185
     37 CCA        12.5505    3.4618    6.6694 C.2         1 A02       0.1782
     38 OAJ        13.2283    2.4636    6.4572 O.2         1 A02      -0.3969
     39 CBH        11.1777    3.2641    7.1052 C.3         1 A02       0.0374
     40 CAY        11.0020    3.3118    8.6533 C.3         1 A02      -0.0360
     41 CAT        10.7879    4.7284    9.2630 C.3         1 A02      -0.0492
     42 CAV         9.3621    5.3003    9.0043 C.3         1 A02      -0.0326
     43 CBC         9.0598    6.6488    9.7099 C.3         1 A02       0.0310
     44 NBQ         9.8498    7.7734    9.3108 N.am        1 A02      -0.2851
     45 NBT        13.0518    4.6897    6.5444 N.am        1 A02      -0.2656
     46 CCJ        14.4035    5.0771    6.2196 C.3         1 A02       0.1310
     47 CBK        14.8883    4.5311    4.8348 C.3         1 A02      -0.0092
     48 CBB        16.3068    4.9959    4.3715 C.3         1 A02      -0.0156
     49 CBF        16.3321    6.1674    3.3382 C.3         1 A02       0.0627
     50 NBP        17.0775    5.8717    2.1871 N.pl3       1 A02      -0.2723
     51 CBX        16.7250    5.1330    1.1966 C.cat       1 A02       0.2882
     52 NAB        15.5794    4.5831    1.0769 N.pl3       1 A02      -0.2849
     53 NAE        17.5725    4.9349    0.2631 N.pl3       1 A02      -0.2849
     54 CCD        15.2999    4.7728    7.3367 C.2         1 A02       0.2039
     55 OAM        15.6721    5.6858    8.0641 O.2         1 A02      -0.3944
     56 N          15.7152    3.5262    7.5376 N.am        1 A02      -0.2637
     57 CA         16.6996    3.0572    8.4800 C.3         1 A02       0.1307
     58 CB         18.0973    3.6868    8.1782 C.3         1 A02      -0.0092
     59 CG         19.2628    3.1904    9.0823 C.3         1 A02      -0.0156
     60 CD         20.4750    4.1704    9.0676 C.3         1 A02       0.0627
     61 NE         21.7227    3.5396    9.1418 N.pl3       1 A02      -0.2723
     62 CZ         22.2553    2.7894    8.2481 C.cat       1 A02       0.2882
     63 NH1        21.7008    2.4276    7.1568 N.pl3       1 A02      -0.2849
     64 NH2        23.4525    2.3872    8.4433 N.pl3       1 A02      -0.2849
     65 C          16.7303    1.5982    8.4206 C.2         1 A02       0.1992
     66 O          16.6937    0.9338    9.4489 O.2         1 A02      -0.3947
     67 NAF        16.7967    0.9463    7.2818 N.am        1 A02      -0.2990
     68 H1         13.7542   23.0303    4.0634 H           1 A02       0.0996
     69 H2         18.7359   22.8954    5.7659 H           1 A02       0.1820
     70 H3         17.8680   24.3082    5.5032 H           1 A02       0.1820
     71 H4         17.8199   18.2368    5.3645 H           1 A02       0.1349
     72 H5         13.2684   16.4279    1.4177 H           1 A02       0.2102
     73 H6         13.8413   18.6468    1.4972 H           1 A02       0.2101
     74 H7         15.3248   15.9820    2.1089 H           1 A02       0.0673
     75 H8         15.8095   18.1729    2.3974 H           1 A02       0.0678
     76 H9         13.8608   15.8035    4.7698 H           1 A02       0.0869
     77 H10        14.1817   18.3191    4.9718 H           1 A02       0.0998
     78 H11        14.8922    8.8805    9.0664 H           1 A02       0.0502
     79 H12        13.9219   10.0076   10.0076 H           1 A02       0.0502
     80 H13        15.6436   11.2412    8.7787 H           1 A02       0.0290
     81 H14        14.0570   11.6832    8.1606 H           1 A02       0.0290
     82 H15        14.6520    9.6828    6.3768 H           1 A02       0.0267
     83 H16        16.2947   10.1081    6.8289 H           1 A02       0.0267
     84 H17        14.1855   12.0531    5.7281 H           1 A02       0.0285
     85 H18        15.3962   11.2328    4.7468 H           1 A02       0.0285
     86 H19        17.1457   12.6045    5.4327 H           1 A02       0.0520
     87 H20        16.4651   12.8496    7.0436 H           1 A02       0.0520
     88 H21        15.5129   14.6834    6.3601 H           1 A02       0.1851
     89 H22        11.7552   10.3909    9.3988 H           1 A02       0.1883
     90 H23        10.7831    9.7693    6.8649 H           1 A02       0.0800
     91 H24        10.1708   11.7229    8.4472 H           1 A02       0.0312
     92 H25         9.1516   10.5951    9.3127 H           1 A02       0.0312
     93 H26         7.6125   11.6105    7.9130 H           1 A02       0.0269
     94 H27         8.0115   10.1990    6.9536 H           1 A02       0.0269
     95 H28         7.8715   12.1958    5.5466 H           1 A02       0.0317
     96 H29         9.5018   11.5467    5.5073 H           1 A02       0.0317
     97 H30         9.3667   14.0642    5.5930 H           1 A02       0.0813
     98 H31        10.3575   13.3686    6.8764 H           1 A02       0.0813
     99 H32         8.9124   15.1254    7.6186 H           1 A02       0.1994
    100 H33         8.5722   13.6938    8.4026 H           1 A02       0.1994
    101 H34         7.5604   14.2443    7.1874 H           1 A02       0.1994
    102 H35        10.8425    2.2781    6.7634 H           1 A02       0.0502
    103 H36        10.5271    3.9966    6.6170 H           1 A02       0.0502
    104 H37        11.8799    2.8553    9.1292 H           1 A02       0.0290
    105 H38        10.1461    2.6845    8.9266 H           1 A02       0.0290
    106 H39        11.5407    5.4144    8.8694 H           1 A02       0.0267
    107 H40        10.9329    4.6545   10.3446 H           1 A02       0.0267
    108 H41         8.6283    4.5711    9.3643 H           1 A02       0.0285
    109 H42         9.2043    5.4162    7.9313 H           1 A02       0.0285
    110 H43         9.1942    6.5153   10.7860 H           1 A02       0.0520
    111 H44         8.0060    6.8992    9.5460 H           1 A02       0.0520
    112 H45        10.3544    8.2154   10.0160 H           1 A02       0.1851
    113 H46        12.4355    5.4228    6.7109 H           1 A02       0.1883
    114 H47        14.3643    6.1670    6.0987 H           1 A02       0.0800
    115 H48        14.1466    4.8045    4.0803 H           1 A02       0.0313
    116 H49        14.8961    3.4398    4.8689 H           1 A02       0.0313
    117 H50        16.8129    4.1235    3.9443 H           1 A02       0.0301
    118 H51        16.9084    5.2789    5.2408 H           1 A02       0.0301
    119 H52        16.8035    7.0347    3.8091 H           1 A02       0.0689
    120 H53        15.3252    6.4850    3.0515 H           1 A02       0.0689
    121 H54        17.9353    6.2411    2.1465 H           1 A02       0.2642
    122 H55        15.3893    4.0552    0.3256 H           1 A02       0.2615
    123 H56        14.9238    4.7066    1.7336 H           1 A02       0.2615
    124 H57        18.4273    5.3136    0.3092 H           1 A02       0.2615
    125 H58        17.3451    4.3960   -0.4679 H           1 A02       0.2615
    126 H59        15.3406    2.8567    6.9441 H           1 A02       0.1883
    127 H60        16.3874    3.3703    9.4837 H           1 A02       0.0800
    128 H61        18.0129    4.7720    8.2950 H           1 A02       0.0313
    129 H62        18.3618    3.4866    7.1336 H           1 A02       0.0313
    130 H63        19.5725    2.2021    8.7325 H           1 A02       0.0301
    131 H64        18.9093    3.0796   10.1117 H           1 A02       0.0301
    132 H65        20.3927    4.8331    9.9318 H           1 A02       0.0689
    133 H66        20.4591    4.8042    8.1739 H           1 A02       0.0689
    134 H67        22.2518    3.7434    9.8853 H           1 A02       0.2642
    135 H68        22.1709    1.8834    6.5602 H           1 A02       0.2615
    136 H69        20.8275    2.6945    6.9512 H           1 A02       0.2615
    137 H70        23.9115    2.6308    9.2216 H           1 A02       0.2615
    138 H71        23.8782    1.8703    7.7908 H           1 A02       0.2615
    139 H72        16.7802   -0.0249    7.2798 H           1 A02       0.1815
    140 H73        16.8262    1.4300    6.4395 H           1 A02       0.1815
@<TRIPOS>BOND
     1     2     1  ar
     2     6     1  ar
     3     3     2  ar
     4     4     3  ar
     5     4     5  ar
     6    10     4   1
     7     5     6  ar
     8     8     5   1
     9     6     7   1
    10     9     8   2
    11    10     9   1
    12    19    10   1
    13    15    11   2
    14    16    12   1
    15    17    13   1
    16    18    14   1
    17    14    19   1
    18    15    18   1
    19    27    15  am
    20    16    17   1
    21    18    16   1
    22    17    19   1
    23    20    21   2
    24    20    22   1
    25    28    20  am
    26    22    23   1
    27    23    24   1
    28    24    25   1
    29    25    26   1
    30    26    27   1
    31    29    28   1
    32    30    29   1
    33    29    32   1
    34    30    31   2
    35    44    30  am
    36    32    33   1
    37    33    34   1
    38    34    35   1
    39    35    36   1
    40    37    38   2
    41    39    37   1
    42    37    45  am
    43    40    39   1
    44    41    40   1
    45    42    41   1
    46    43    42   1
    47    43    44   1
    48    45    46   1
    49    46    47   1
    50    46    54   1
    51    47    48   1
    52    48    49   1
    53    49    50   1
    54    50    51  ar
    55    51    52  ar
    56    51    53  ar
    57    54    55   2
    58    54    56  am
    59    56    57   1
    60    57    58   1
    61    57    65   1
    62    58    59   1
    63    59    60   1
    64    60    61   1
    65    61    62  ar
    66    62    63  ar
    67    62    64  ar
    68    65    66   2
    69    65    67  am
    70     2    68   1
    71     7    69   1
    72     7    70   1
    73     9    71   1
    74    12    72   1
    75    13    73   1
    76    16    74   1
    77    17    75   1
    78    18    76   1
    79    19    77   1
    80    22    78   1
    81    22    79   1
    82    23    80   1
    83    23    81   1
    84    24    82   1
    85    24    83   1
    86    25    84   1
    87    25    85   1
    88    26    86   1
    89    26    87   1
    90    27    88   1
    91    28    89   1
    92    29    90   1
    93    32    91   1
    94    32    92   1
    95    33    93   1
    96    33    94   1
    97    34    95   1
    98    34    96   1
    99    35    97   1
   100    35    98   1
   101    36    99   1
   102    36   100   1
   103    36   101   1
   104    39   102   1
   105    39   103   1
   106    40   104   1
   107    40   105   1
   108    41   106   1
   109    41   107   1
   110    42   108   1
   111    42   109   1
   112    43   110   1
   113    43   111   1
   114    44   112   1
   115    45   113   1
   116    46   114   1
   117    47   115   1
   118    47   116   1
   119    48   117   1
   120    48   118   1
   121    49   119   1
   122    49   120   1
   123    50   121   1
   124    52   122   1
   125    52   123   1
   126    53   124   1
   127    53   125   1
   128    56   126   1
   129    57   127   1
   130    58   128   1
   131    58   129   1
   132    59   130   1
   133    59   131   1
   134    60   132   1
   135    60   133   1
   136    61   134   1
   137    63   135   1
   138    63   136   1
   139    64   137   1
   140    64   138   1
   141    67   139   1
   142    67   140   1
@<TRIPOS>SUBSTRUCTURE
     1  A02      2

