@<TRIPOS>MOLECULE
3ag9_ligand_036
   140   142
SMALL
GAST_HUCK
****
This file was generated by PARSER (from files_GN.cpp)

@<TRIPOS>ATOM
      1 N1         14.5270    1.8749   13.6939 N.ar        1 A02      -0.2698
      2 C2         13.3192    2.1556   13.1254 C.ar        1 A02       0.0533
      3 N3         12.2442    2.4287   13.9120 N.ar        1 A02      -0.2714
      4 C4         12.3703    2.4162   15.2651 C.ar        1 A02       0.1613
      5 C5         13.5968    2.1253   15.8606 C.ar        1 A02       0.1045
      6 C6         14.7075    1.8487   15.0405 C.ar        1 A02       0.1298
      7 N6         15.9152    1.5665   15.5584 N.pl3       1 A02      -0.3152
      8 N7         13.4527    2.1862   17.1890 N.2         1 A02      -0.2958
      9 C8         12.1659    2.5050   17.4119 C.2         1 A02       0.1123
     10 N9         11.4854    2.6526   16.2518 N.pl3       1 A02      -0.1918
     11 OAL         7.3078    4.8586   13.0474 O.2         1 A02      -0.3941
     12 OAN         7.3703    4.4781   16.7473 O.3         1 A02      -0.3840
     13 OAO         9.7949    4.7508   17.8649 O.3         1 A02      -0.3834
     14 OBV         9.5579    2.7982   14.8289 O.3         1 A02      -0.3181
     15 CCC         8.2957    4.1903   13.3269 C.2         1 A02       0.2080
     16 CCK         8.4294    4.6879   15.8066 C.3         1 A02       0.1295
     17 CCL         9.8012    4.4660   16.4656 C.3         1 A02       0.1408
     18 CCM         8.3860    3.6220   14.6702 C.3         1 A02       0.1788
     19 CCN        10.0910    2.9878   16.1485 C.3         1 A02       0.2035
     20 CBZ        13.0167    5.5762    7.0694 C.2         1 A02       0.1782
     21 OAI        12.7016    6.7144    7.3923 O.2         1 A02      -0.3969
     22 CBG        11.9450    4.7106    6.6010 C.3         1 A02       0.0374
     23 CAX        10.8776    4.2904    7.6758 C.3         1 A02      -0.0360
     24 CAU        11.1259    4.7216    9.1577 C.3         1 A02      -0.0492
     25 CAW        10.3989    3.8677   10.2480 C.3         1 A02      -0.0326
     26 CBD         9.3518    4.6024   11.1356 C.3         1 A02       0.0310
     27 NBR         9.2346    3.9634   12.4150 N.am        1 A02      -0.2847
     28 NBS        14.2332    5.0724    7.2784 N.am        1 A02      -0.2656
     29 CCI        15.3585    5.5683    8.0374 C.3         1 A02       0.1308
     30 CCB        16.5982    5.5868    7.2611 C.2         1 A02       0.2016
     31 OAK        16.5621    5.6520    6.0368 O.2         1 A02      -0.3945
     32 CBJ        15.1990    6.8706    8.8975 C.3         1 A02      -0.0122
     33 CAZ        15.3125    8.2503    8.1716 C.3         1 A02      -0.0440
     34 CAS        15.4207    9.4625    9.1421 C.3         1 A02      -0.0124
     35 CAR        14.1892    9.6943   10.0522 C.3         1 A02      -0.0354
     36 NAC        13.0563   10.2956    9.3320 N.4         1 A02       0.2185
     37 CCA        19.7349   10.9348    4.4322 C.2         1 A02       0.1782
     38 OAJ        20.6296   11.2112    3.6447 O.2         1 A02      -0.3969
     39 CBH        20.0681   10.2009    5.6437 C.3         1 A02       0.0374
     40 CAY        20.7256    8.8262    5.3315 C.3         1 A02      -0.0360
     41 CAT        20.6524    7.7729    6.4744 C.3         1 A02      -0.0492
     42 CAV        19.1981    7.3510    6.8420 C.3         1 A02      -0.0326
     43 CBC        19.0591    5.8983    7.3754 C.3         1 A02       0.0310
     44 NBQ        17.7556    5.6382    7.9151 N.am        1 A02      -0.2851
     45 NBT        18.4689   11.2571    4.1823 N.am        1 A02      -0.2656
     46 CCJ        17.9152   11.8512    2.9978 C.3         1 A02       0.1310
     47 CBK        18.0185   10.9139    1.7447 C.3         1 A02      -0.0092
     48 CBB        17.1231    9.6420    1.7534 C.3         1 A02      -0.0156
     49 CBF        17.5079    8.5681    2.8055 C.3         1 A02       0.0627
     50 NBP        16.7527    7.3925    2.6975 N.pl3       1 A02      -0.2723
     51 CBX        16.8844    6.4463    1.8463 C.cat       1 A02       0.2882
     52 NAB        17.7670    6.4173    0.9199 N.pl3       1 A02      -0.2849
     53 NAE        16.0892    5.4552    1.9282 N.pl3       1 A02      -0.2849
     54 CCD        18.4332   13.2046    2.7781 C.2         1 A02       0.2039
     55 OAM        19.2694   13.4026    1.9076 O.2         1 A02      -0.3944
     56 N          17.9746   14.2089    3.5192 N.am        1 A02      -0.2637
     57 CA         18.2465   15.6162    3.3423 C.3         1 A02       0.1307
     58 CB         19.0720   16.1531    4.5473 C.3         1 A02      -0.0092
     59 CG         18.3627   16.1206    5.9412 C.3         1 A02      -0.0156
     60 CD         18.6986   17.3642    6.8020 C.3         1 A02       0.0627
     61 NE         18.0116   17.3580    8.0211 N.pl3       1 A02      -0.2723
     62 CZ         18.1303   18.2285    8.9590 C.cat       1 A02       0.2882
     63 NH1        18.9102   19.2389    8.9278 N.pl3       1 A02      -0.2849
     64 NH2        17.4152   18.0957   10.0063 N.pl3       1 A02      -0.2849
     65 C          17.0250   16.3833    3.1177 C.2         1 A02       0.1992
     66 O          15.9133   15.8819    3.2156 O.2         1 A02      -0.3947
     67 NAF        17.0736   17.6634    2.8118 N.am        1 A02      -0.2990
     68 H1         13.2241    2.1596   12.1104 H           1 A02       0.0996
     69 H2         16.0399    1.5507   16.5205 H           1 A02       0.1820
     70 H3         16.6682    1.3726   14.9738 H           1 A02       0.1820
     71 H4         11.7645    2.6090   18.3446 H           1 A02       0.1349
     72 H5          6.5431    4.6282   16.2446 H           1 A02       0.2102
     73 H6         10.7218    4.6406   18.1579 H           1 A02       0.2101
     74 H7          8.3564    5.7167   15.4386 H           1 A02       0.0673
     75 H8         10.5457    5.1032   15.9766 H           1 A02       0.0678
     76 H9          7.5176    2.9711   14.8087 H           1 A02       0.0869
     77 H10         9.5253    2.3475   16.8333 H           1 A02       0.0998
     78 H11        12.3731    3.8007    6.1638 H           1 A02       0.0502
     79 H12        11.4392    5.2220    5.7741 H           1 A02       0.0502
     80 H13        10.7959    3.1976    7.6437 H           1 A02       0.0290
     81 H14         9.9014    4.6794    7.3723 H           1 A02       0.0290
     82 H15        10.8609    5.7790    9.2579 H           1 A02       0.0267
     83 H16        12.1994    4.6478    9.3571 H           1 A02       0.0267
     84 H17        11.1771    3.4579   10.8996 H           1 A02       0.0285
     85 H18         9.9017    3.0137    9.7824 H           1 A02       0.0285
     86 H19         8.3884    4.6002   10.6164 H           1 A02       0.0520
     87 H20         9.6504    5.6382   11.3068 H           1 A02       0.0520
     88 H21         9.9507    3.3566   12.6650 H           1 A02       0.1851
     89 H22        14.3477    4.1616    6.9644 H           1 A02       0.1883
     90 H23        15.4927    4.7677    8.7731 H           1 A02       0.0800
     91 H24        15.9710    6.8435    9.6737 H           1 A02       0.0312
     92 H25        14.2468    6.8176    9.4266 H           1 A02       0.0312
     93 H26        14.4638    8.4026    7.5048 H           1 A02       0.0269
     94 H27        16.2102    8.2577    7.5521 H           1 A02       0.0269
     95 H28        15.5845   10.3702    8.5490 H           1 A02       0.0317
     96 H29        16.3051    9.3309    9.7720 H           1 A02       0.0317
     97 H30        14.4656   10.3702   10.8607 H           1 A02       0.0813
     98 H31        13.8613    8.7573   10.5051 H           1 A02       0.0813
     99 H32        12.2762   10.4514    9.9776 H           1 A02       0.1994
    100 H33        12.7565    9.6687    8.5814 H           1 A02       0.1994
    101 H34        13.3446   11.1903    8.9351 H           1 A02       0.1994
    102 H35        19.1650   10.0510    6.2428 H           1 A02       0.0502
    103 H36        20.7561   10.7983    6.2471 H           1 A02       0.0502
    104 H37        21.7764    8.9955    5.0837 H           1 A02       0.0290
    105 H38        20.2587    8.3815    4.4495 H           1 A02       0.0290
    106 H39        21.1564    8.1718    7.3626 H           1 A02       0.0267
    107 H40        21.2177    6.8951    6.1477 H           1 A02       0.0267
    108 H41        18.5556    7.4499    5.9647 H           1 A02       0.0285
    109 H42        18.8264    8.0417    7.6043 H           1 A02       0.0285
    110 H43        19.7798    5.7509    8.1810 H           1 A02       0.0520
    111 H44        19.2870    5.1788    6.5813 H           1 A02       0.0520
    112 H45        17.7171    5.5336    8.8808 H           1 A02       0.1851
    113 H46        17.8236   11.0131    4.8670 H           1 A02       0.1883
    114 H47        16.8440   11.9581    3.1894 H           1 A02       0.0800
    115 H48        19.0576   10.6175    1.5831 H           1 A02       0.0313
    116 H49        17.7136   11.4915    0.8663 H           1 A02       0.0313
    117 H50        17.1904    9.1945    0.7578 H           1 A02       0.0301
    118 H51        16.0807    9.9382    1.9046 H           1 A02       0.0301
    119 H52        17.3202    8.9674    3.8043 H           1 A02       0.0689
    120 H53        18.5741    8.3376    2.7336 H           1 A02       0.0689
    121 H54        16.0822    7.2800    3.3410 H           1 A02       0.2642
    122 H55        17.8083    5.6882    0.3361 H           1 A02       0.2615
    123 H56        18.3767    7.1195    0.8238 H           1 A02       0.2615
    124 H57        15.4291    5.4325    2.5910 H           1 A02       0.2615
    125 H58        16.1594    4.7425    1.3239 H           1 A02       0.2615
    126 H59        17.3519   13.9782    4.2274 H           1 A02       0.1883
    127 H60        18.8653   15.7619    2.4487 H           1 A02       0.0800
    128 H61        19.3765   17.1779    4.3066 H           1 A02       0.0313
    129 H62        19.9973   15.5765    4.6163 H           1 A02       0.0313
    130 H63        18.6691   15.2157    6.4739 H           1 A02       0.0301
    131 H64        17.2773   16.0739    5.8234 H           1 A02       0.0301
    132 H65        18.4183   18.2619    6.2430 H           1 A02       0.0689
    133 H66        19.7764   17.3925    6.9880 H           1 A02       0.0689
    134 H67        17.3924   16.6677    8.1627 H           1 A02       0.2642
    135 H68        18.9247   19.8256    9.6559 H           1 A02       0.2615
    136 H69        19.4598   19.3985    8.1883 H           1 A02       0.2615
    137 H70        16.8214   17.3772   10.0913 H           1 A02       0.2615
    138 H71        17.4880   18.7341   10.6891 H           1 A02       0.2615
    139 H72        16.2514   18.1615    2.6806 H           1 A02       0.1815
    140 H73        17.9286   18.1113    2.7116 H           1 A02       0.1815
@<TRIPOS>BOND
     1     2     1  ar
     2     6     1  ar
     3     3     2  ar
     4     4     3  ar
     5     4     5  ar
     6    10     4   1
     7     5     6  ar
     8     8     5   1
     9     6     7   1
    10     9     8   2
    11    10     9   1
    12    19    10   1
    13    15    11   2
    14    16    12   1
    15    17    13   1
    16    18    14   1
    17    14    19   1
    18    15    18   1
    19    27    15  am
    20    16    17   1
    21    18    16   1
    22    17    19   1
    23    20    21   2
    24    20    22   1
    25    28    20  am
    26    22    23   1
    27    23    24   1
    28    24    25   1
    29    25    26   1
    30    26    27   1
    31    29    28   1
    32    30    29   1
    33    29    32   1
    34    30    31   2
    35    44    30  am
    36    32    33   1
    37    33    34   1
    38    34    35   1
    39    35    36   1
    40    37    38   2
    41    39    37   1
    42    37    45  am
    43    40    39   1
    44    41    40   1
    45    42    41   1
    46    43    42   1
    47    43    44   1
    48    45    46   1
    49    46    47   1
    50    46    54   1
    51    47    48   1
    52    48    49   1
    53    49    50   1
    54    50    51  ar
    55    51    52  ar
    56    51    53  ar
    57    54    55   2
    58    54    56  am
    59    56    57   1
    60    57    58   1
    61    57    65   1
    62    58    59   1
    63    59    60   1
    64    60    61   1
    65    61    62  ar
    66    62    63  ar
    67    62    64  ar
    68    65    66   2
    69    65    67  am
    70     2    68   1
    71     7    69   1
    72     7    70   1
    73     9    71   1
    74    12    72   1
    75    13    73   1
    76    16    74   1
    77    17    75   1
    78    18    76   1
    79    19    77   1
    80    22    78   1
    81    22    79   1
    82    23    80   1
    83    23    81   1
    84    24    82   1
    85    24    83   1
    86    25    84   1
    87    25    85   1
    88    26    86   1
    89    26    87   1
    90    27    88   1
    91    28    89   1
    92    29    90   1
    93    32    91   1
    94    32    92   1
    95    33    93   1
    96    33    94   1
    97    34    95   1
    98    34    96   1
    99    35    97   1
   100    35    98   1
   101    36    99   1
   102    36   100   1
   103    36   101   1
   104    39   102   1
   105    39   103   1
   106    40   104   1
   107    40   105   1
   108    41   106   1
   109    41   107   1
   110    42   108   1
   111    42   109   1
   112    43   110   1
   113    43   111   1
   114    44   112   1
   115    45   113   1
   116    46   114   1
   117    47   115   1
   118    47   116   1
   119    48   117   1
   120    48   118   1
   121    49   119   1
   122    49   120   1
   123    50   121   1
   124    52   122   1
   125    52   123   1
   126    53   124   1
   127    53   125   1
   128    56   126   1
   129    57   127   1
   130    58   128   1
   131    58   129   1
   132    59   130   1
   133    59   131   1
   134    60   132   1
   135    60   133   1
   136    61   134   1
   137    63   135   1
   138    63   136   1
   139    64   137   1
   140    64   138   1
   141    67   139   1
   142    67   140   1
@<TRIPOS>SUBSTRUCTURE
     1  A02      2

