@<TRIPOS>MOLECULE
3ag9_ligand_033
   140   142
SMALL
GAST_HUCK
****
This file was generated by PARSER (from files_GN.cpp)

@<TRIPOS>ATOM
      1 N1          0.0389   11.9480   15.4603 N.ar        1 A02      -0.2698
      2 C2          0.9924   11.3651   16.2428 C.ar        1 A02       0.0533
      3 N3          1.6813   10.2838   15.7934 N.ar        1 A02      -0.2714
      4 C4          1.4199    9.7833   14.5538 C.ar        1 A02       0.1613
      5 C5          0.4540   10.3652   13.7390 C.ar        1 A02       0.1045
      6 C6         -0.2569   11.4805   14.2159 C.ar        1 A02       0.1298
      7 N6         -1.1992   12.0855   13.4779 N.pl3       1 A02      -0.3152
      8 N7          0.4137    9.6895   12.5831 N.2         1 A02      -0.2958
      9 C8          1.3337    8.7098   12.6887 C.2         1 A02       0.1123
     10 N9          1.9547    8.7416   13.8941 N.pl3       1 A02      -0.1918
     11 OAL         5.7746   10.1722   13.0325 O.2         1 A02      -0.3941
     12 OAN         5.7027    6.1735   12.6285 O.3         1 A02      -0.3840
     13 OAO         3.7436    5.5787   14.4862 O.3         1 A02      -0.3834
     14 OBV         4.1466    8.7696   14.6447 O.3         1 A02      -0.3181
     15 CCC         6.2250    9.1683   13.5725 C.2         1 A02       0.2080
     16 CCK         4.7707    7.2059   12.9613 C.3         1 A02       0.1295
     17 CCL         3.4844    6.6845   13.6151 C.3         1 A02       0.1408
     18 CCM         5.2998    8.1542   14.0565 C.3         1 A02       0.1788
     19 CCN         3.0046    7.9105   14.4425 C.3         1 A02       0.2035
     20 CBZ         9.5146    7.3677    8.6078 C.2         1 A02       0.1782
     21 OAI        10.5823    6.8814    8.2399 O.2         1 A02      -0.3969
     22 CBG         8.7750    6.6885    9.6634 C.3         1 A02       0.0374
     23 CAX         8.5529    7.5544   10.9450 C.3         1 A02      -0.0360
     24 CAU         9.7148    8.5341   11.2907 C.3         1 A02      -0.0492
     25 CAW         9.7999    9.0203   12.7664 C.3         1 A02      -0.0326
     26 CBD         8.5961    9.8457   13.2991 C.3         1 A02       0.0310
     27 NBR         7.5278    8.9854   13.7185 N.am        1 A02      -0.2847
     28 NBS         9.0440    8.5176    8.1297 N.am        1 A02      -0.2656
     29 CCI         9.6506    9.4725    7.2388 C.3         1 A02       0.1308
     30 CCB        10.8258   10.1484    7.8039 C.2         1 A02       0.2016
     31 OAK        10.8711   11.3811    7.7958 O.2         1 A02      -0.3945
     32 CBJ         9.7911    9.0322    5.7381 C.3         1 A02      -0.0122
     33 CAZ        10.8112    7.9146    5.3753 C.3         1 A02      -0.0440
     34 CAS        10.9939    7.6863    3.8434 C.3         1 A02      -0.0124
     35 CAR         9.7150    7.3580    3.0315 C.3         1 A02      -0.0354
     36 NAC         8.9604    6.2426    3.6176 N.4         1 A02       0.2185
     37 CCA        15.3091   14.1223    4.6650 C.2         1 A02       0.1782
     38 OAJ        15.2532   13.9766    3.4472 O.2         1 A02      -0.3969
     39 CBH        14.2599   13.5514    5.4896 C.3         1 A02       0.0374
     40 CAY        14.7833   12.3889    6.3826 C.3         1 A02      -0.0360
     41 CAT        13.6235   11.6757    7.1274 C.3         1 A02      -0.0492
     42 CAV        14.0947   10.5115    8.0336 C.3         1 A02      -0.0326
     43 CBC        12.9963    9.9862    8.9909 C.3         1 A02       0.0310
     44 NBQ        11.8410    9.4584    8.3279 N.am        1 A02      -0.2851
     45 NBT        16.3080   14.7881    5.2472 N.am        1 A02      -0.2656
     46 CCJ        17.4599   15.3668    4.6144 C.3         1 A02       0.1310
     47 CBK        18.7700   14.7830    5.2640 C.3         1 A02      -0.0092
     48 CBB        19.6096   13.8381    4.3402 C.3         1 A02      -0.0156
     49 CBF        20.9068   14.4561    3.7387 C.3         1 A02       0.0627
     50 NBP        20.8615   15.8306    3.4716 N.pl3       1 A02      -0.2723
     51 CBX        20.4100   16.4250    2.4274 C.cat       1 A02       0.2882
     52 NAB        19.9173   15.8353    1.4059 N.pl3       1 A02      -0.2849
     53 NAE        20.4585   17.7024    2.4248 N.pl3       1 A02      -0.2849
     54 CCD        17.3685   16.8199    4.6861 C.2         1 A02       0.2039
     55 OAM        17.6064   17.4651    3.6652 O.2         1 A02      -0.3944
     56 N          17.0138   17.4426    5.8079 N.am        1 A02      -0.2637
     57 CA         16.9013   18.8760    5.9766 C.3         1 A02       0.1307
     58 CB         18.2623   19.6008    5.6458 C.3         1 A02      -0.0092
     59 CG         19.0393   20.3645    6.7724 C.3         1 A02      -0.0156
     60 CD         19.7385   19.4845    7.8568 C.3         1 A02       0.0627
     61 NE         18.8834   19.1715    8.9230 N.pl3       1 A02      -0.2723
     62 CZ         18.2429   18.0882    9.1557 C.cat       1 A02       0.2882
     63 NH1        18.2255   17.0507    8.3994 N.pl3       1 A02      -0.2849
     64 NH2        17.5295   18.0604   10.2112 N.pl3       1 A02      -0.2849
     65 C          16.3014   19.2468    7.2572 C.2         1 A02       0.1992
     66 O          15.8828   18.4060    8.0404 O.2         1 A02      -0.3947
     67 NAF        16.1667   20.5078    7.6009 N.am        1 A02      -0.2990
     68 H1          1.1954   11.7382   17.1728 H           1 A02       0.0996
     69 H2         -1.4066   11.7538   12.5897 H           1 A02       0.1820
     70 H3         -1.6725   12.8593   13.8287 H           1 A02       0.1820
     71 H4          1.5315    8.0461   11.9346 H           1 A02       0.1349
     72 H5          5.2578    5.6487   11.9289 H           1 A02       0.2102
     73 H6          4.5865    5.1878   14.1800 H           1 A02       0.2101
     74 H7          4.5082    7.7636   12.0534 H           1 A02       0.0673
     75 H8          2.7582    6.3521   12.8694 H           1 A02       0.0678
     76 H9          5.7772    7.5537   14.8418 H           1 A02       0.0869
     77 H10         2.6630    7.5559   15.4237 H           1 A02       0.0998
     78 H11         9.2993    5.7753    9.9665 H           1 A02       0.0502
     79 H12         7.7934    6.3830    9.2754 H           1 A02       0.0502
     80 H13         8.3997    6.8676   11.7853 H           1 A02       0.0290
     81 H14         7.6345    8.1411   10.8202 H           1 A02       0.0290
     82 H15         9.6283    9.4162   10.6485 H           1 A02       0.0267
     83 H16        10.6713    8.0560   11.0567 H           1 A02       0.0267
     84 H17        10.6970    9.6430   12.8506 H           1 A02       0.0285
     85 H18         9.9559    8.1508   13.4141 H           1 A02       0.0285
     86 H19         8.2871   10.5867   12.5553 H           1 A02       0.0520
     87 H20         8.9203   10.3872   14.1894 H           1 A02       0.0520
     88 H21         7.8038    8.1746   14.1765 H           1 A02       0.1851
     89 H22         8.1789    8.7984    8.4901 H           1 A02       0.1883
     90 H23         8.8668   10.2326    7.1839 H           1 A02       0.0800
     91 H24        10.0671    9.9292    5.1660 H           1 A02       0.0312
     92 H25         8.8014    8.7142    5.3884 H           1 A02       0.0312
     93 H26        10.4992    6.9668    5.8314 H           1 A02       0.0269
     94 H27        11.7979    8.1844    5.7683 H           1 A02       0.0269
     95 H28        11.6961    6.8536    3.7166 H           1 A02       0.0317
     96 H29        11.4579    8.5772    3.4060 H           1 A02       0.0317
     97 H30        10.0097    7.0638    2.0173 H           1 A02       0.0813
     98 H31         9.0654    8.2364    2.9610 H           1 A02       0.0813
     99 H32         8.1778    5.9995    3.0027 H           1 A02       0.1994
    100 H33         8.5971    6.5193    4.5383 H           1 A02       0.1994
    101 H34         9.5789    5.4322    3.7259 H           1 A02       0.1994
    102 H35        13.4507   13.1775    4.8450 H           1 A02       0.0502
    103 H36        13.8407   14.3489    6.1199 H           1 A02       0.0502
    104 H37        15.4851   12.7918    7.1229 H           1 A02       0.0290
    105 H38        15.3117   11.6619    5.7510 H           1 A02       0.0290
    106 H39        12.9215   11.2865    6.3847 H           1 A02       0.0267
    107 H40        13.1003   12.4181    7.7383 H           1 A02       0.0267
    108 H41        14.9379   10.8499    8.6401 H           1 A02       0.0285
    109 H42        14.4519    9.6885    7.4085 H           1 A02       0.0285
    110 H43        12.7294   10.7613    9.7106 H           1 A02       0.0520
    111 H44        13.4376    9.1631    9.5631 H           1 A02       0.0520
    112 H45        11.7757    8.4914    8.3126 H           1 A02       0.1851
    113 H46        16.2656   14.8733    6.2169 H           1 A02       0.1883
    114 H47        17.4631   15.0910    3.5546 H           1 A02       0.0800
    115 H48        18.5055   14.2220    6.1695 H           1 A02       0.0313
    116 H49        19.4123   15.5998    5.6102 H           1 A02       0.0313
    117 H50        18.9936   13.4549    3.5238 H           1 A02       0.0301
    118 H51        19.9137   12.9653    4.9228 H           1 A02       0.0301
    119 H52        21.1985   13.9105    2.8378 H           1 A02       0.0689
    120 H53        21.7134   14.3181    4.4620 H           1 A02       0.0689
    121 H54        21.2100   16.3916    4.1396 H           1 A02       0.2642
    122 H55        19.6098   16.3358    0.6817 H           1 A02       0.2615
    123 H56        19.8686   14.9035    1.3757 H           1 A02       0.2615
    124 H57        20.8010   18.1512    3.1679 H           1 A02       0.2615
    125 H58        20.1437   18.1811    1.6886 H           1 A02       0.2615
    126 H59        16.7706   16.8811    6.5629 H           1 A02       0.1883
    127 H60        16.1723   19.2160    5.2271 H           1 A02       0.0800
    128 H61        18.0526   20.3542    4.8669 H           1 A02       0.0313
    129 H62        18.9705   18.8896    5.1976 H           1 A02       0.0313
    130 H63        18.3734   21.0989    7.2510 H           1 A02       0.0301
    131 H64        19.8235   20.9423    6.2645 H           1 A02       0.0301
    132 H65        20.5317   20.0888    8.3137 H           1 A02       0.0689
    133 H66        20.2109   18.6030    7.3909 H           1 A02       0.0689
    134 H67        18.7494   19.8582    9.5594 H           1 A02       0.2642
    135 H68        17.6868   16.3285    8.6358 H           1 A02       0.2615
    136 H69        18.7192   17.0257    7.6110 H           1 A02       0.2615
    137 H70        17.5084   18.8141   10.7730 H           1 A02       0.2615
    138 H71        17.0232   17.3013   10.4069 H           1 A02       0.2615
    139 H72        15.8437   20.7182    8.4929 H           1 A02       0.1815
    140 H73        16.5028   21.2135    7.0216 H           1 A02       0.1815
@<TRIPOS>BOND
     1     2     1  ar
     2     6     1  ar
     3     3     2  ar
     4     4     3  ar
     5     4     5  ar
     6    10     4   1
     7     5     6  ar
     8     8     5   1
     9     6     7   1
    10     9     8   2
    11    10     9   1
    12    19    10   1
    13    15    11   2
    14    16    12   1
    15    17    13   1
    16    18    14   1
    17    14    19   1
    18    15    18   1
    19    27    15  am
    20    16    17   1
    21    18    16   1
    22    17    19   1
    23    20    21   2
    24    20    22   1
    25    28    20  am
    26    22    23   1
    27    23    24   1
    28    24    25   1
    29    25    26   1
    30    26    27   1
    31    29    28   1
    32    30    29   1
    33    29    32   1
    34    30    31   2
    35    44    30  am
    36    32    33   1
    37    33    34   1
    38    34    35   1
    39    35    36   1
    40    37    38   2
    41    39    37   1
    42    37    45  am
    43    40    39   1
    44    41    40   1
    45    42    41   1
    46    43    42   1
    47    43    44   1
    48    45    46   1
    49    46    47   1
    50    46    54   1
    51    47    48   1
    52    48    49   1
    53    49    50   1
    54    50    51  ar
    55    51    52  ar
    56    51    53  ar
    57    54    55   2
    58    54    56  am
    59    56    57   1
    60    57    58   1
    61    57    65   1
    62    58    59   1
    63    59    60   1
    64    60    61   1
    65    61    62  ar
    66    62    63  ar
    67    62    64  ar
    68    65    66   2
    69    65    67  am
    70     2    68   1
    71     7    69   1
    72     7    70   1
    73     9    71   1
    74    12    72   1
    75    13    73   1
    76    16    74   1
    77    17    75   1
    78    18    76   1
    79    19    77   1
    80    22    78   1
    81    22    79   1
    82    23    80   1
    83    23    81   1
    84    24    82   1
    85    24    83   1
    86    25    84   1
    87    25    85   1
    88    26    86   1
    89    26    87   1
    90    27    88   1
    91    28    89   1
    92    29    90   1
    93    32    91   1
    94    32    92   1
    95    33    93   1
    96    33    94   1
    97    34    95   1
    98    34    96   1
    99    35    97   1
   100    35    98   1
   101    36    99   1
   102    36   100   1
   103    36   101   1
   104    39   102   1
   105    39   103   1
   106    40   104   1
   107    40   105   1
   108    41   106   1
   109    41   107   1
   110    42   108   1
   111    42   109   1
   112    43   110   1
   113    43   111   1
   114    44   112   1
   115    45   113   1
   116    46   114   1
   117    47   115   1
   118    47   116   1
   119    48   117   1
   120    48   118   1
   121    49   119   1
   122    49   120   1
   123    50   121   1
   124    52   122   1
   125    52   123   1
   126    53   124   1
   127    53   125   1
   128    56   126   1
   129    57   127   1
   130    58   128   1
   131    58   129   1
   132    59   130   1
   133    59   131   1
   134    60   132   1
   135    60   133   1
   136    61   134   1
   137    63   135   1
   138    63   136   1
   139    64   137   1
   140    64   138   1
   141    67   139   1
   142    67   140   1
@<TRIPOS>SUBSTRUCTURE
     1  A02      2

