@<TRIPOS>MOLECULE
3ag9_ligand_016
   140   142
SMALL
GAST_HUCK
****
This file was generated by PARSER (from files_GN.cpp)

@<TRIPOS>ATOM
      1 N1         10.2384    2.7339   16.9778 N.ar        1 A02      -0.2698
      2 C2          9.3727    3.5281   17.6688 C.ar        1 A02       0.0533
      3 N3          8.4026    4.2211   17.0146 N.ar        1 A02      -0.2714
      4 C4          8.3007    4.1251   15.6628 C.ar        1 A02       0.1613
      5 C5          9.1701    3.3155   14.9358 C.ar        1 A02       0.1045
      6 C6         10.1674    2.6022   15.6248 C.ar        1 A02       0.1298
      7 N6         11.0392    1.8098   14.9817 N.pl3       1 A02      -0.3152
      8 N7          8.8630    3.4110   13.6358 N.2         1 A02      -0.2958
      9 C8          7.8286    4.2693   13.5563 C.2         1 A02       0.1123
     10 N9          7.4713    4.7182   14.7836 N.pl3       1 A02      -0.1918
     11 OAL         3.3054    7.2439   12.3139 O.2         1 A02      -0.3941
     12 OAN         5.2521    8.4801   15.9685 O.3         1 A02      -0.3840
     13 OAO         7.8500    7.5505   16.0007 O.3         1 A02      -0.3834
     14 OBV         5.3579    5.6375   14.1847 O.3         1 A02      -0.3181
     15 CCC         4.4729    7.2155   12.6855 C.2         1 A02       0.2080
     16 CCK         5.7487    7.9705   14.7270 C.3         1 A02       0.1295
     17 CCL         7.0289    7.1421   14.9093 C.3         1 A02       0.1408
     18 CCM         4.7665    6.9467   14.0881 C.3         1 A02       0.1788
     19 CCN         6.4801    5.7119   15.0748 C.3         1 A02       0.2035
     20 CBZ         9.0337   10.4544    7.4982 C.2         1 A02       0.1782
     21 OAI         9.4159    9.6637    6.6462 O.2         1 A02      -0.3969
     22 CBG         7.6445   10.3874    7.9390 C.3         1 A02       0.0374
     23 CAX         7.4308   10.1706    9.4666 C.3         1 A02      -0.0360
     24 CAU         7.7157    8.7433   10.0221 C.3         1 A02      -0.0492
     25 CAW         6.6759    7.6389    9.6776 C.3         1 A02      -0.0326
     26 CBD         5.3227    7.7049   10.4350 C.3         1 A02       0.0310
     27 NBR         5.4667    7.4465   11.8354 N.am        1 A02      -0.2847
     28 NBS         9.8178   11.4328    7.9432 N.am        1 A02      -0.2656
     29 CCI        11.1684   11.7748    7.5796 C.3         1 A02       0.1308
     30 CCB        12.0403   10.6026    7.5246 C.2         1 A02       0.2016
     31 OAK        12.9305   10.4803    8.3586 O.2         1 A02      -0.3945
     32 CBJ        11.2331   12.6816    6.3073 C.3         1 A02      -0.0122
     33 CAZ        12.6519   13.2142    5.9344 C.3         1 A02      -0.0440
     34 CAS        12.8236   14.7510    6.1038 C.3         1 A02      -0.0124
     35 CAR        13.9734   15.3484    5.2527 C.3         1 A02      -0.0354
     36 NAC        15.2171   14.5794    5.3632 N.4         1 A02       0.2185
     37 CCA        15.0136    3.7936    6.4621 C.2         1 A02       0.1782
     38 OAJ        15.1360    3.9971    7.6639 O.2         1 A02      -0.3969
     39 CBH        15.2013    4.9227    5.5630 C.3         1 A02       0.0374
     40 CAY        14.4322    6.1934    6.0226 C.3         1 A02      -0.0360
     41 CAT        14.6000    7.3988    5.0590 C.3         1 A02      -0.0492
     42 CAV        13.9525    8.7144    5.5739 C.3         1 A02      -0.0326
     43 CBC        12.6337    8.5040    6.3676 C.3         1 A02       0.0310
     44 NBQ        11.8770    9.6967    6.5700 N.am        1 A02      -0.2851
     45 NBT        14.7311    2.5857    5.9791 N.am        1 A02      -0.2656
     46 CCJ        14.5180    1.3458    6.6800 C.3         1 A02       0.1310
     47 CBK        13.0139    1.1774    7.0917 C.3         1 A02      -0.0092
     48 CBB        12.3709    2.3192    7.9413 C.3         1 A02      -0.0156
     49 CBF        11.5572    3.3493    7.1137 C.3         1 A02       0.0627
     50 NBP        10.8830    4.2529    7.9448 N.pl3       1 A02      -0.2723
     51 CBX        10.1084    5.2073    7.5816 C.cat       1 A02       0.2882
     52 NAB         9.8236    5.5012    6.3699 N.pl3       1 A02      -0.2849
     53 NAE         9.5784    5.9227    8.4969 N.pl3       1 A02      -0.2849
     54 CCD        15.5023    1.0559    7.7234 C.2         1 A02       0.2039
     55 OAM        15.1206    0.7423    8.8425 O.2         1 A02      -0.3944
     56 N          16.7941    1.2748    7.4703 N.am        1 A02      -0.2637
     57 CA         17.9026    1.2576    8.3893 C.3         1 A02       0.1307
     58 CB         17.9268   -0.0615    9.2217 C.3         1 A02      -0.0092
     59 CG         19.0491   -0.2022   10.2834 C.3         1 A02      -0.0156
     60 CD         20.4441   -0.6147    9.7390 C.3         1 A02       0.0627
     61 NE         21.2786    0.4817    9.4944 N.pl3       1 A02      -0.2723
     62 CZ         22.1381    0.6173    8.5532 C.cat       1 A02       0.2882
     63 NH1        22.3208   -0.2119    7.5980 N.pl3       1 A02      -0.2849
     64 NH2        22.8882    1.6526    8.5575 N.pl3       1 A02      -0.2849
     65 C          17.9360    2.5035    9.1487 C.2         1 A02       0.1992
     66 O          17.2967    2.6409   10.1799 O.2         1 A02      -0.3947
     67 NAF        18.5391    3.5752    8.6841 N.am        1 A02      -0.2990
     68 H1          9.4544    3.6070   18.6836 H           1 A02       0.0996
     69 H2         10.9919    1.7150   14.0167 H           1 A02       0.1820
     70 H3         11.7167    1.3277   15.4812 H           1 A02       0.1820
     71 H4          7.3928    4.5514   12.6751 H           1 A02       0.1349
     72 H5          5.2729    7.7343   16.6030 H           1 A02       0.2102
     73 H6          7.3566    7.3109   16.8121 H           1 A02       0.2101
     74 H7          5.9395    8.8332   14.0843 H           1 A02       0.0673
     75 H8          7.6285    7.2059   13.9970 H           1 A02       0.0678
     76 H9          3.8371    6.9249   14.6662 H           1 A02       0.0869
     77 H10         6.1040    5.5741   16.0971 H           1 A02       0.0998
     78 H11         7.1044    9.6047    7.3988 H           1 A02       0.0502
     79 H12         7.1711   11.3332    7.6620 H           1 A02       0.0502
     80 H13         6.3996   10.4365    9.7062 H           1 A02       0.0290
     81 H14         8.0619   10.8802   10.0119 H           1 A02       0.0290
     82 H15         7.7921    8.8099   11.1110 H           1 A02       0.0267
     83 H16         8.6945    8.4194    9.6562 H           1 A02       0.0267
     84 H17         7.1277    6.6682    9.8981 H           1 A02       0.0285
     85 H18         6.4784    7.6629    8.6052 H           1 A02       0.0285
     86 H19         4.6536    6.9475   10.0139 H           1 A02       0.0520
     87 H20         4.8581    8.6801   10.2813 H           1 A02       0.0520
     88 H21         6.3687    7.4363   12.1963 H           1 A02       0.1851
     89 H22         9.4111   12.0203    8.5990 H           1 A02       0.1883
     90 H23        11.5043   12.4059    8.4081 H           1 A02       0.0800
     91 H24        10.5718   13.5400    6.4574 H           1 A02       0.0312
     92 H25        10.8376   12.1339    5.4493 H           1 A02       0.0312
     93 H26        12.8326   12.9653    4.8848 H           1 A02       0.0269
     94 H27        13.4061   12.6918    6.5259 H           1 A02       0.0269
     95 H28        13.0059   14.9992    7.1517 H           1 A02       0.0317
     96 H29        11.8901   15.2369    5.8049 H           1 A02       0.0317
     97 H30        14.1820   16.3667    5.5895 H           1 A02       0.0813
     98 H31        13.6774   15.3934    4.2014 H           1 A02       0.0813
     99 H32        15.9147   14.9698    4.7257 H           1 A02       0.1994
    100 H33        15.0448   13.6021    5.1167 H           1 A02       0.1994
    101 H34        15.5748   14.6323    6.3206 H           1 A02       0.1994
    102 H35        14.8801    4.6648    4.5486 H           1 A02       0.0502
    103 H36        16.2702    5.1482    5.5213 H           1 A02       0.0502
    104 H37        14.7800    6.4848    7.0164 H           1 A02       0.0290
    105 H38        13.3702    5.9471    6.0916 H           1 A02       0.0290
    106 H39        14.1600    7.1455    4.0900 H           1 A02       0.0267
    107 H40        15.6663    7.5851    4.9006 H           1 A02       0.0267
    108 H41        13.7497    9.3532    4.7090 H           1 A02       0.0285
    109 H42        14.6714    9.2413    6.2098 H           1 A02       0.0285
    110 H43        12.8459    8.0439    7.3362 H           1 A02       0.0520
    111 H44        11.9925    7.8187    5.8069 H           1 A02       0.0520
    112 H45        11.1565    9.8490    5.9429 H           1 A02       0.1851
    113 H46        14.6536    2.5266    5.0141 H           1 A02       0.1883
    114 H47        14.6803    0.5727    5.9237 H           1 A02       0.0800
    115 H48        12.9220    0.2395    7.6489 H           1 A02       0.0313
    116 H49        12.4208    1.0405    6.1850 H           1 A02       0.0313
    117 H50        13.1470    2.8368    8.5092 H           1 A02       0.0301
    118 H51        11.6822    1.8682    8.6625 H           1 A02       0.0301
    119 H52        10.8273    2.8051    6.5118 H           1 A02       0.0689
    120 H53        12.2253    3.8960    6.4413 H           1 A02       0.0689
    121 H54        11.0047    4.1457    8.8673 H           1 A02       0.2642
    122 H55         9.2464    6.2147    6.1868 H           1 A02       0.2615
    123 H56        10.1850    5.0114    5.6604 H           1 A02       0.2615
    124 H57         9.7563    5.7430    9.3979 H           1 A02       0.2615
    125 H58         9.0070    6.6277    8.2696 H           1 A02       0.2615
    126 H59        17.0171    1.4911    6.5491 H           1 A02       0.1883
    127 H60        18.8024    1.2371    7.7713 H           1 A02       0.0800
    128 H61        18.0044   -0.9074    8.5343 H           1 A02       0.0313
    129 H62        16.9734   -0.1779    9.7419 H           1 A02       0.0313
    130 H63        18.7260   -0.9879   10.9786 H           1 A02       0.0301
    131 H64        19.1295    0.7253   10.8570 H           1 A02       0.0301
    132 H65        20.3081   -1.2519    8.8614 H           1 A02       0.0689
    133 H66        20.9448   -1.2208   10.5018 H           1 A02       0.0689
    134 H67        21.2717    1.1598   10.1408 H           1 A02       0.2642
    135 H68        22.9730   -0.0296    6.9567 H           1 A02       0.2615
    136 H69        21.8068   -0.9871    7.5271 H           1 A02       0.2615
    137 H70        22.8110    2.2916    9.2352 H           1 A02       0.2615
    138 H71        23.5326    1.7572    7.8853 H           1 A02       0.2615
    139 H72        18.5094    4.4059    9.1881 H           1 A02       0.1815
    140 H73        19.0129    3.5396    7.8386 H           1 A02       0.1815
@<TRIPOS>BOND
     1     2     1  ar
     2     6     1  ar
     3     3     2  ar
     4     4     3  ar
     5     4     5  ar
     6    10     4   1
     7     5     6  ar
     8     8     5   1
     9     6     7   1
    10     9     8   2
    11    10     9   1
    12    19    10   1
    13    15    11   2
    14    16    12   1
    15    17    13   1
    16    18    14   1
    17    14    19   1
    18    15    18   1
    19    27    15  am
    20    16    17   1
    21    18    16   1
    22    17    19   1
    23    20    21   2
    24    20    22   1
    25    28    20  am
    26    22    23   1
    27    23    24   1
    28    24    25   1
    29    25    26   1
    30    26    27   1
    31    29    28   1
    32    30    29   1
    33    29    32   1
    34    30    31   2
    35    44    30  am
    36    32    33   1
    37    33    34   1
    38    34    35   1
    39    35    36   1
    40    37    38   2
    41    39    37   1
    42    37    45  am
    43    40    39   1
    44    41    40   1
    45    42    41   1
    46    43    42   1
    47    43    44   1
    48    45    46   1
    49    46    47   1
    50    46    54   1
    51    47    48   1
    52    48    49   1
    53    49    50   1
    54    50    51  ar
    55    51    52  ar
    56    51    53  ar
    57    54    55   2
    58    54    56  am
    59    56    57   1
    60    57    58   1
    61    57    65   1
    62    58    59   1
    63    59    60   1
    64    60    61   1
    65    61    62  ar
    66    62    63  ar
    67    62    64  ar
    68    65    66   2
    69    65    67  am
    70     2    68   1
    71     7    69   1
    72     7    70   1
    73     9    71   1
    74    12    72   1
    75    13    73   1
    76    16    74   1
    77    17    75   1
    78    18    76   1
    79    19    77   1
    80    22    78   1
    81    22    79   1
    82    23    80   1
    83    23    81   1
    84    24    82   1
    85    24    83   1
    86    25    84   1
    87    25    85   1
    88    26    86   1
    89    26    87   1
    90    27    88   1
    91    28    89   1
    92    29    90   1
    93    32    91   1
    94    32    92   1
    95    33    93   1
    96    33    94   1
    97    34    95   1
    98    34    96   1
    99    35    97   1
   100    35    98   1
   101    36    99   1
   102    36   100   1
   103    36   101   1
   104    39   102   1
   105    39   103   1
   106    40   104   1
   107    40   105   1
   108    41   106   1
   109    41   107   1
   110    42   108   1
   111    42   109   1
   112    43   110   1
   113    43   111   1
   114    44   112   1
   115    45   113   1
   116    46   114   1
   117    47   115   1
   118    47   116   1
   119    48   117   1
   120    48   118   1
   121    49   119   1
   122    49   120   1
   123    50   121   1
   124    52   122   1
   125    52   123   1
   126    53   124   1
   127    53   125   1
   128    56   126   1
   129    57   127   1
   130    58   128   1
   131    58   129   1
   132    59   130   1
   133    59   131   1
   134    60   132   1
   135    60   133   1
   136    61   134   1
   137    63   135   1
   138    63   136   1
   139    64   137   1
   140    64   138   1
   141    67   139   1
   142    67   140   1
@<TRIPOS>SUBSTRUCTURE
     1  A02      2

