@<TRIPOS>MOLECULE
3ag9_ligand_067
   140   142
SMALL
GAST_HUCK
****
This file was generated by PARSER (from files_GN.cpp)

@<TRIPOS>ATOM
      1 N1         18.9125   -0.5522    9.7968 N.ar        1 A02      -0.2698
      2 C2         18.2693    0.4050    9.0696 C.ar        1 A02       0.0533
      3 N3         18.9608    1.4673    8.5732 N.ar        1 A02      -0.2714
      4 C4         20.2945    1.5768    8.8044 C.ar        1 A02       0.1613
      5 C5         20.9700    0.6076    9.5419 C.ar        1 A02       0.1045
      6 C6         20.2453   -0.4794   10.0556 C.ar        1 A02       0.1298
      7 N6         20.8359   -1.4302   10.7946 N.pl3       1 A02      -0.3152
      8 N7         22.2634    0.9437    9.6083 N.2         1 A02      -0.2958
      9 C8         22.3909    2.0986    8.9211 C.2         1 A02       0.1123
     10 N9         21.1978    2.5015    8.4241 N.pl3       1 A02      -0.1918
     11 OAL        18.2672    3.1737    5.0208 O.2         1 A02      -0.3941
     12 OAN        21.3632    5.8581    5.3388 O.3         1 A02      -0.3840
     13 OAO        22.9039    3.7452    6.0880 O.3         1 A02      -0.3834
     14 OBV        19.5882    4.0098    7.5085 O.3         1 A02      -0.3181
     15 CCC        18.1708    4.2048    5.6749 C.2         1 A02       0.2080
     16 CCK        20.6698    4.6108    5.4348 C.3         1 A02       0.1295
     17 CCL        21.4921    3.5514    6.1912 C.3         1 A02       0.1408
     18 CCM        19.3786    4.7420    6.2932 C.3         1 A02       0.1788
     19 CCN        20.9795    3.6876    7.6384 C.3         1 A02       0.2035
     20 CBZ        13.2724    1.7030    8.6038 C.2         1 A02       0.1782
     21 OAI        12.0823    1.7836    8.3112 O.2         1 A02      -0.3969
     22 CBG        14.0459    0.6623    7.9530 C.3         1 A02       0.0374
     23 CAX        14.2718    0.8587    6.4251 C.3         1 A02      -0.0360
     24 CAU        15.3389    1.9099    6.0107 C.3         1 A02      -0.0492
     25 CAW        14.9203    3.3991    6.1645 C.3         1 A02      -0.0326
     26 CBD        15.7362    4.4085    5.3042 C.3         1 A02       0.0310
     27 NBR        17.0012    4.8043    5.8453 N.am        1 A02      -0.2847
     28 NBS        13.8440    2.4663    9.5336 N.am        1 A02      -0.2656
     29 CCI        13.3110    3.5067   10.3776 C.3         1 A02       0.1308
     30 CCB        14.3136    4.5650   10.4631 C.2         1 A02       0.2016
     31 OAK        14.9865    4.6639   11.4805 O.2         1 A02      -0.3945
     32 CBJ        11.8830    4.0460   10.0391 C.3         1 A02      -0.0122
     33 CAZ        11.2561    5.0267   11.0731 C.3         1 A02      -0.0440
     34 CAS         9.8139    5.4847   10.6974 C.3         1 A02      -0.0124
     35 CAR         8.7634    4.3456   10.7461 C.3         1 A02      -0.0354
     36 NAC         8.4581    3.9366   12.1273 N.4         1 A02       0.2185
     37 CCA        14.7438   11.9796    6.4162 C.2         1 A02       0.1782
     38 OAJ        14.0202   11.3544    5.6388 O.2         1 A02      -0.3969
     39 CBH        15.6280   11.2316    7.2987 C.3         1 A02       0.0374
     40 CAY        14.8247   10.2037    8.1534 C.3         1 A02      -0.0360
     41 CAT        15.6368    8.9582    8.6003 C.3         1 A02      -0.0492
     42 CAV        14.6900    7.7828    8.9865 C.3         1 A02      -0.0326
     43 CBC        15.4335    6.4683    9.3360 C.3         1 A02       0.0310
     44 NBQ        14.4908    5.3990    9.4425 N.am        1 A02      -0.2851
     45 NBT        14.6832   13.3152    6.4862 N.am        1 A02      -0.2656
     46 CCJ        13.8432   14.2061    5.7281 C.3         1 A02       0.1310
     47 CBK        12.5084   13.5718    5.2115 C.3         1 A02      -0.0092
     48 CBB        11.3796   13.3603    6.2596 C.3         1 A02      -0.0156
     49 CBF        11.5698   12.2115    7.2926 C.3         1 A02       0.0627
     50 NBP        11.4231   10.9420    6.7201 N.pl3       1 A02      -0.2723
     51 CBX        11.1369    9.8506    7.3399 C.cat       1 A02       0.2882
     52 NAB        10.9328    9.7590    8.6052 N.pl3       1 A02      -0.2849
     53 NAE        11.0264    8.7756    6.6545 N.pl3       1 A02      -0.2849
     54 CCD        14.6579   14.8463    4.6974 C.2         1 A02       0.2039
     55 OAM        14.3626   14.7664    3.5098 O.2         1 A02      -0.3944
     56 N          15.7183   15.5538    5.0797 N.am        1 A02      -0.2637
     57 CA         16.5341   16.4023    4.2502 C.3         1 A02       0.1307
     58 CB         17.9852   16.4887    4.8213 C.3         1 A02      -0.0092
     59 CG         18.1700   17.4596    6.0449 C.3         1 A02      -0.0156
     60 CD         18.8077   16.7990    7.3045 C.3         1 A02       0.0627
     61 NE         18.1035   17.0683    8.4757 N.pl3       1 A02      -0.2723
     62 CZ         18.1377   18.1227    9.2039 C.cat       1 A02       0.2882
     63 NH1        18.8959   19.1398    9.0253 N.pl3       1 A02      -0.2849
     64 NH2        17.3365   18.1455   10.2005 N.pl3       1 A02      -0.2849
     65 C          15.9601   17.7201    4.0238 C.2         1 A02       0.1992
     66 O          16.2324   18.3508    3.0087 O.2         1 A02      -0.3947
     67 NAF        15.1649   18.3099    4.9033 N.am        1 A02      -0.2990
     68 H1         17.2697    0.3241    8.8994 H           1 A02       0.0996
     69 H2         21.7749   -1.3553   11.0109 H           1 A02       0.1820
     70 H3         20.3170   -2.1743   11.1366 H           1 A02       0.1820
     71 H4         23.2794    2.5899    8.8046 H           1 A02       0.1349
     72 H5         21.5143    6.1444    6.2639 H           1 A02       0.2102
     73 H6         23.1440    3.3773    5.2090 H           1 A02       0.2101
     74 H7         20.4708    4.2709    4.4146 H           1 A02       0.0673
     75 H8         21.2444    2.5537    5.8098 H           1 A02       0.0678
     76 H9         19.2315    5.7923    6.5693 H           1 A02       0.0869
     77 H10        21.4656    4.5370    8.1330 H           1 A02       0.0998
     78 H11        13.5077   -0.2786    8.0991 H           1 A02       0.0502
     79 H12        15.0224    0.5453    8.4286 H           1 A02       0.0502
     80 H13        13.3226    1.0898    5.9342 H           1 A02       0.0290
     81 H14        14.6038   -0.1066    6.0352 H           1 A02       0.0290
     82 H15        15.5724    1.7251    4.9595 H           1 A02       0.0267
     83 H16        16.2445    1.7261    6.5926 H           1 A02       0.0267
     84 H17        14.9996    3.6831    7.2114 H           1 A02       0.0285
     85 H18        13.8755    3.4994    5.8698 H           1 A02       0.0285
     86 H19        15.1421    5.3228    5.2325 H           1 A02       0.0520
     87 H20        15.8602    4.0356    4.2874 H           1 A02       0.0520
     88 H21        17.0132    5.6347    6.3492 H           1 A02       0.1851
     89 H22        14.7803    2.2678    9.6974 H           1 A02       0.1883
     90 H23        13.2255    3.0286   11.3626 H           1 A02       0.0800
     91 H24        11.2248    3.1781    9.9331 H           1 A02       0.0312
     92 H25        11.9022    4.5597    9.0745 H           1 A02       0.0312
     93 H26        11.8938    5.9090   11.1493 H           1 A02       0.0269
     94 H27        11.2447    4.5600   12.0598 H           1 A02       0.0269
     95 H28         9.8196    5.9145    9.6920 H           1 A02       0.0317
     96 H29         9.4964    6.2772   11.3823 H           1 A02       0.0317
     97 H30         9.1167    3.4736   10.1941 H           1 A02       0.0813
     98 H31         7.8319    4.6786   10.2794 H           1 A02       0.0813
     99 H32         7.8672    3.1056   12.1181 H           1 A02       0.1994
    100 H33         7.9719    4.6960   12.6097 H           1 A02       0.1994
    101 H34         9.3233    3.7275   12.6297 H           1 A02       0.1994
    102 H35        16.1701   11.9150    7.9797 H           1 A02       0.0502
    103 H36        16.3628   10.7114    6.6731 H           1 A02       0.0502
    104 H37        13.9591    9.8502    7.5793 H           1 A02       0.0290
    105 H38        14.4581   10.7207    9.0519 H           1 A02       0.0290
    106 H39        16.2602    9.2305    9.4609 H           1 A02       0.0267
    107 H40        16.2932    8.6416    7.7792 H           1 A02       0.0267
    108 H41        14.0127    7.5912    8.1470 H           1 A02       0.0285
    109 H42        14.0840    8.0807    9.8514 H           1 A02       0.0285
    110 H43        16.0216    6.6096   10.2482 H           1 A02       0.0520
    111 H44        16.1217    6.2153    8.5258 H           1 A02       0.0520
    112 H45        13.9131    5.2668    8.6744 H           1 A02       0.1851
    113 H46        15.3155   13.7643    7.0684 H           1 A02       0.1883
    114 H47        13.5435   15.0101    6.4165 H           1 A02       0.0800
    115 H48        12.7002   12.6185    4.7048 H           1 A02       0.0313
    116 H49        12.0755   14.2496    4.4623 H           1 A02       0.0313
    117 H50        10.4472   13.1426    5.7272 H           1 A02       0.0301
    118 H51        11.2212   14.2808    6.8277 H           1 A02       0.0301
    119 H52        10.8040   12.3388    8.0750 H           1 A02       0.0689
    120 H53        12.5518   12.2891    7.7778 H           1 A02       0.0689
    121 H54        11.5111   10.8674    5.7884 H           1 A02       0.2642
    122 H55        10.7190    8.9252    8.9866 H           1 A02       0.2615
    123 H56        10.9886   10.5189    9.1525 H           1 A02       0.2615
    124 H57        11.1657    8.7981    5.7220 H           1 A02       0.2615
    125 H58        10.8053    7.9646    7.0792 H           1 A02       0.2615
    126 H59        15.9355   15.5338    6.0294 H           1 A02       0.1883
    127 H60        16.6305   15.9101    3.2776 H           1 A02       0.0800
    128 H61        18.6713   16.7963    4.0206 H           1 A02       0.0313
    129 H62        18.2982   15.4739    5.0955 H           1 A02       0.0313
    130 H63        17.2028   17.8808    6.3317 H           1 A02       0.0301
    131 H64        18.7967   18.3094    5.7348 H           1 A02       0.0301
    132 H65        19.8541   17.1033    7.3916 H           1 A02       0.0689
    133 H66        18.7858   15.7089    7.1950 H           1 A02       0.0689
    134 H67        17.5033   16.4052    8.7382 H           1 A02       0.2642
    135 H68        18.8353   19.8505    9.6256 H           1 A02       0.2615
    136 H69        19.4977   19.1655    8.3138 H           1 A02       0.2615
    137 H70        16.7775   17.4200   10.3533 H           1 A02       0.2615
    138 H71        17.3269   18.8927   10.7543 H           1 A02       0.2615
    139 H72        14.7979   19.1827    4.7107 H           1 A02       0.1815
    140 H73        14.9333   17.8591    5.7285 H           1 A02       0.1815
@<TRIPOS>BOND
     1     2     1  ar
     2     6     1  ar
     3     3     2  ar
     4     4     3  ar
     5     4     5  ar
     6    10     4   1
     7     5     6  ar
     8     8     5   1
     9     6     7   1
    10     9     8   2
    11    10     9   1
    12    19    10   1
    13    15    11   2
    14    16    12   1
    15    17    13   1
    16    18    14   1
    17    14    19   1
    18    15    18   1
    19    27    15  am
    20    16    17   1
    21    18    16   1
    22    17    19   1
    23    20    21   2
    24    20    22   1
    25    28    20  am
    26    22    23   1
    27    23    24   1
    28    24    25   1
    29    25    26   1
    30    26    27   1
    31    29    28   1
    32    30    29   1
    33    29    32   1
    34    30    31   2
    35    44    30  am
    36    32    33   1
    37    33    34   1
    38    34    35   1
    39    35    36   1
    40    37    38   2
    41    39    37   1
    42    37    45  am
    43    40    39   1
    44    41    40   1
    45    42    41   1
    46    43    42   1
    47    43    44   1
    48    45    46   1
    49    46    47   1
    50    46    54   1
    51    47    48   1
    52    48    49   1
    53    49    50   1
    54    50    51  ar
    55    51    52  ar
    56    51    53  ar
    57    54    55   2
    58    54    56  am
    59    56    57   1
    60    57    58   1
    61    57    65   1
    62    58    59   1
    63    59    60   1
    64    60    61   1
    65    61    62  ar
    66    62    63  ar
    67    62    64  ar
    68    65    66   2
    69    65    67  am
    70     2    68   1
    71     7    69   1
    72     7    70   1
    73     9    71   1
    74    12    72   1
    75    13    73   1
    76    16    74   1
    77    17    75   1
    78    18    76   1
    79    19    77   1
    80    22    78   1
    81    22    79   1
    82    23    80   1
    83    23    81   1
    84    24    82   1
    85    24    83   1
    86    25    84   1
    87    25    85   1
    88    26    86   1
    89    26    87   1
    90    27    88   1
    91    28    89   1
    92    29    90   1
    93    32    91   1
    94    32    92   1
    95    33    93   1
    96    33    94   1
    97    34    95   1
    98    34    96   1
    99    35    97   1
   100    35    98   1
   101    36    99   1
   102    36   100   1
   103    36   101   1
   104    39   102   1
   105    39   103   1
   106    40   104   1
   107    40   105   1
   108    41   106   1
   109    41   107   1
   110    42   108   1
   111    42   109   1
   112    43   110   1
   113    43   111   1
   114    44   112   1
   115    45   113   1
   116    46   114   1
   117    47   115   1
   118    47   116   1
   119    48   117   1
   120    48   118   1
   121    49   119   1
   122    49   120   1
   123    50   121   1
   124    52   122   1
   125    52   123   1
   126    53   124   1
   127    53   125   1
   128    56   126   1
   129    57   127   1
   130    58   128   1
   131    58   129   1
   132    59   130   1
   133    59   131   1
   134    60   132   1
   135    60   133   1
   136    61   134   1
   137    63   135   1
   138    63   136   1
   139    64   137   1
   140    64   138   1
   141    67   139   1
   142    67   140   1
@<TRIPOS>SUBSTRUCTURE
     1  A02      2

