@<TRIPOS>MOLECULE
3ag9_ligand_018
   140   142
SMALL
GAST_HUCK
****
This file was generated by PARSER (from files_GN.cpp)

@<TRIPOS>ATOM
      1 N1         14.5318    1.8545   13.8655 N.ar        1 A02      -0.2698
      2 C2         13.2827    2.0892   13.3792 C.ar        1 A02       0.0533
      3 N3         12.2544    2.3437   14.2360 N.ar        1 A02      -0.2714
      4 C4         12.4708    2.3566   15.5757 C.ar        1 A02       0.1613
      5 C5         13.7396    2.0931   16.0875 C.ar        1 A02       0.1045
      6 C6         14.7984    1.8407   15.1996 C.ar        1 A02       0.1298
      7 N6         16.0419    1.5991   15.6469 N.pl3       1 A02      -0.3152
      8 N7         13.6900    2.1496   17.4241 N.2         1 A02      -0.2958
      9 C8         12.4175    2.4458   17.7333 C.2         1 A02       0.1123
     10 N9         11.6589    2.6043   16.6261 N.pl3       1 A02      -0.1918
     11 OAL        11.0492    4.8867   14.0954 O.2         1 A02      -0.3941
     12 OAN         7.5369    4.2507   17.0339 O.3         1 A02      -0.3840
     13 OAO         9.7457    4.2510   18.7284 O.3         1 A02      -0.3834
     14 OBV         9.6744    2.9989   15.3280 O.3         1 A02      -0.3181
     15 CCC         9.8833    5.1838   14.3315 C.2         1 A02       0.2080
     16 CCK         8.7435    4.8167   16.5288 C.3         1 A02       0.1295
     17 CCL         9.9607    4.3151   17.3164 C.3         1 A02       0.1408
     18 CCM         9.0488    4.2773   15.1161 C.3         1 A02       0.1788
     19 CCN        10.2620    2.9509   16.6446 C.3         1 A02       0.2035
     20 CBZ         9.8390    4.0594    8.6387 C.2         1 A02       0.1782
     21 OAI         9.7750    5.0525    7.9255 O.2         1 A02      -0.3969
     22 CBG         9.0772    4.0318    9.8714 C.3         1 A02       0.0374
     23 CAX         9.9527    4.2961   11.1311 C.3         1 A02      -0.0360
     24 CAU        10.7452    5.6388   11.1255 C.3         1 A02      -0.0492
     25 CAW         9.9509    6.9168   11.5430 C.3         1 A02      -0.0326
     26 CBD        10.0163    7.2794   13.0497 C.3         1 A02       0.0310
     27 NBR         9.3591    6.3161   13.8759 N.am        1 A02      -0.2847
     28 NBS        10.6450    3.0479    8.3371 N.am        1 A02      -0.2656
     29 CCI        11.6648    3.0637    7.3237 C.3         1 A02       0.1308
     30 CCB        12.7799    3.9448    7.6937 C.2         1 A02       0.2016
     31 OAK        12.9686    4.1956    8.8793 O.2         1 A02      -0.3945
     32 CBJ        12.1554    1.6112    7.0105 C.3         1 A02      -0.0122
     33 CAZ        12.8940    0.8659    8.1699 C.3         1 A02      -0.0440
     34 CAS        14.0790   -0.0508    7.7554 C.3         1 A02      -0.0124
     35 CAR        14.9691    0.5213    6.6243 C.3         1 A02      -0.0354
     36 NAC        16.2465   -0.1914    6.5356 N.4         1 A02       0.2185
     37 CCA        16.7530    9.3565    5.8183 C.2         1 A02       0.1782
     38 OAJ        17.2556    9.2956    6.9337 O.2         1 A02      -0.3969
     39 CBH        17.0942    8.3455    4.8275 C.3         1 A02       0.0374
     40 CAY        15.8861    7.5532    4.2440 C.3         1 A02      -0.0360
     41 CAT        15.0077    6.7898    5.2744 C.3         1 A02      -0.0492
     42 CAV        15.6744    5.5234    5.8790 C.3         1 A02      -0.0326
     43 CBC        14.9201    4.9742    7.1146 C.3         1 A02       0.0310
     44 NBQ        13.6709    4.3439    6.7907 N.am        1 A02      -0.2851
     45 NBT        15.9477   10.3562    5.4789 N.am        1 A02      -0.2656
     46 CCJ        15.4690   11.4392    6.3021 C.3         1 A02       0.1310
     47 CBK        14.4071   10.9816    7.3564 C.3         1 A02      -0.0092
     48 CBB        14.9513   10.0936    8.5048 C.3         1 A02      -0.0156
     49 CBF        13.8769    9.7704    9.5749 C.3         1 A02       0.0627
     50 NBP        14.4467    8.9788   10.5799 N.pl3       1 A02      -0.2723
     51 CBX        14.2351    7.7498   10.8477 C.cat       1 A02       0.2882
     52 NAB        13.4207    6.9830   10.2298 N.pl3       1 A02      -0.2849
     53 NAE        14.9131    7.2383   11.8025 N.pl3       1 A02      -0.2849
     54 CCD        14.8661   12.4548    5.4420 C.2         1 A02       0.2039
     55 OAM        14.1464   12.0814    4.5219 O.2         1 A02      -0.3944
     56 N          14.9579   13.7510    5.7373 N.am        1 A02      -0.2637
     57 CA         14.3134   14.8230    5.0229 C.3         1 A02       0.1307
     58 CB         14.8967   16.2265    5.3846 C.3         1 A02      -0.0092
     59 CG         16.3334   16.5096    4.8591 C.3         1 A02      -0.0156
     60 CD         17.4781   16.0995    5.8218 C.3         1 A02       0.0627
     61 NE         18.7419   16.3323    5.2698 N.pl3       1 A02      -0.2723
     62 CZ         19.3556   15.6312    4.3866 C.cat       1 A02       0.2882
     63 NH1        18.8932   14.5630    3.8594 N.pl3       1 A02      -0.2849
     64 NH2        20.5089   16.0243    4.0057 N.pl3       1 A02      -0.2849
     65 C          12.8729   14.7854    5.2700 C.2         1 A02       0.1992
     66 O          12.0801   14.7289    4.3416 O.2         1 A02      -0.3947
     67 NAF        12.3784   14.7599    6.4902 N.am        1 A02      -0.2990
     68 H1         13.1172    2.0845   12.3754 H           1 A02       0.0996
     69 H2         16.2229    1.5938   16.6015 H           1 A02       0.1820
     70 H3         16.7648    1.4241   15.0218 H           1 A02       0.1820
     71 H4         12.0773    2.5471   18.6915 H           1 A02       0.1349
     72 H5          6.8421    4.4891   16.3836 H           1 A02       0.2102
     73 H6          9.3187    3.3896   18.9205 H           1 A02       0.2101
     74 H7          8.6591    5.9065   16.5658 H           1 A02       0.0673
     75 H8         10.7976    4.9992   17.1459 H           1 A02       0.0678
     76 H9          8.1237    4.1001   14.5622 H           1 A02       0.0869
     77 H10         9.7335    2.1684   17.1971 H           1 A02       0.0998
     78 H11         8.5992    3.0497    9.9593 H           1 A02       0.0502
     79 H12         8.2722    4.7751    9.8427 H           1 A02       0.0502
     80 H13        10.6635    3.4738   11.2328 H           1 A02       0.0290
     81 H14         9.3015    4.2521   12.0059 H           1 A02       0.0290
     82 H15        11.1415    5.7989   10.1197 H           1 A02       0.0267
     83 H16        11.6117    5.5303   11.7831 H           1 A02       0.0267
     84 H17         8.9079    6.8285   11.2377 H           1 A02       0.0285
     85 H18        10.3677    7.7661   10.9943 H           1 A02       0.0285
     86 H19         9.5053    8.2320   13.1985 H           1 A02       0.0520
     87 H20        11.0556    7.4318   13.3596 H           1 A02       0.0520
     88 H21         8.4293    6.4918   14.0872 H           1 A02       0.1851
     89 H22        10.6258    2.2750    8.9265 H           1 A02       0.1883
     90 H23        11.2130    3.4517    6.4078 H           1 A02       0.0800
     91 H24        12.8121    1.6885    6.1407 H           1 A02       0.0312
     92 H25        11.2893    1.0149    6.7048 H           1 A02       0.0312
     93 H26        12.1722    0.2587    8.7135 H           1 A02       0.0269
     94 H27        13.3063    1.5710    8.8899 H           1 A02       0.0269
     95 H28        13.6965   -1.0208    7.4495 H           1 A02       0.0317
     96 H29        14.6993   -0.2176    8.6443 H           1 A02       0.0317
     97 H30        15.1836    1.5813    6.7954 H           1 A02       0.0813
     98 H31        14.4673    0.4151    5.6602 H           1 A02       0.0813
     99 H32        16.7953    0.1948    5.7647 H           1 A02       0.1994
    100 H33        16.0794   -1.1876    6.3637 H           1 A02       0.1994
    101 H34        16.7658   -0.0767    7.4133 H           1 A02       0.1994
    102 H35        17.8164    7.6350    5.2409 H           1 A02       0.0502
    103 H36        17.5928    8.8592    3.9995 H           1 A02       0.0502
    104 H37        16.2602    6.8400    3.5069 H           1 A02       0.0290
    105 H38        15.2430    8.2532    3.7048 H           1 A02       0.0290
    106 H39        14.0855    6.4788    4.7771 H           1 A02       0.0267
    107 H40        14.7245    7.4771    6.0763 H           1 A02       0.0267
    108 H41        16.6934    5.7660    6.1925 H           1 A02       0.0285
    109 H42        15.7386    4.7437    5.1144 H           1 A02       0.0285
    110 H43        14.7583    5.7958    7.8144 H           1 A02       0.0520
    111 H44        15.5542    4.2331    7.6093 H           1 A02       0.0520
    112 H45        13.4965    4.1396    5.8588 H           1 A02       0.1851
    113 H46        15.6434   10.3569    4.5600 H           1 A02       0.1883
    114 H47        16.3139   11.8887    6.8303 H           1 A02       0.0800
    115 H48        13.6082   10.4319    6.8471 H           1 A02       0.0313
    116 H49        13.9529   11.8652    7.8170 H           1 A02       0.0313
    117 H50        15.8013   10.5912    8.9805 H           1 A02       0.0301
    118 H51        15.2961    9.1434    8.0861 H           1 A02       0.0301
    119 H52        13.0182    9.2888    9.0935 H           1 A02       0.0689
    120 H53        13.5210   10.6939   10.0370 H           1 A02       0.0689
    121 H54        15.1078    9.4020   11.0944 H           1 A02       0.2642
    122 H55        13.3397    6.0885   10.4891 H           1 A02       0.2615
    123 H56        12.9132    7.3047    9.5129 H           1 A02       0.2615
    124 H57        15.5349    7.7695   12.2547 H           1 A02       0.2615
    125 H58        14.8045    6.3402   12.0359 H           1 A02       0.2615
    126 H59        15.4666   13.9971    6.5274 H           1 A02       0.1883
    127 H60        14.4935   14.6692    3.9537 H           1 A02       0.0800
    128 H61        14.8579   16.3765    6.4668 H           1 A02       0.0313
    129 H62        14.2406   16.9837    4.9399 H           1 A02       0.0313
    130 H63        16.4218   17.5863    4.6897 H           1 A02       0.0301
    131 H64        16.4659   16.0218    3.8923 H           1 A02       0.0301
    132 H65        17.3889   15.0562    6.1270 H           1 A02       0.0689
    133 H66        17.4005   16.7099    6.7217 H           1 A02       0.0689
    134 H67        19.2010   17.0824    5.5861 H           1 A02       0.2642
    135 H68        19.3944   14.0958    3.2204 H           1 A02       0.2615
    136 H69        18.0528   14.2386    4.1083 H           1 A02       0.2615
    137 H70        20.8844   16.8046    4.3620 H           1 A02       0.2615
    138 H71        20.9880   15.5359    3.3636 H           1 A02       0.2615
    139 H72        11.4169   14.6963    6.6239 H           1 A02       0.1815
    140 H73        12.9666   14.7973    7.2636 H           1 A02       0.1815
@<TRIPOS>BOND
     1     2     1  ar
     2     6     1  ar
     3     3     2  ar
     4     4     3  ar
     5     4     5  ar
     6    10     4   1
     7     5     6  ar
     8     8     5   1
     9     6     7   1
    10     9     8   2
    11    10     9   1
    12    19    10   1
    13    15    11   2
    14    16    12   1
    15    17    13   1
    16    18    14   1
    17    14    19   1
    18    15    18   1
    19    27    15  am
    20    16    17   1
    21    18    16   1
    22    17    19   1
    23    20    21   2
    24    20    22   1
    25    28    20  am
    26    22    23   1
    27    23    24   1
    28    24    25   1
    29    25    26   1
    30    26    27   1
    31    29    28   1
    32    30    29   1
    33    29    32   1
    34    30    31   2
    35    44    30  am
    36    32    33   1
    37    33    34   1
    38    34    35   1
    39    35    36   1
    40    37    38   2
    41    39    37   1
    42    37    45  am
    43    40    39   1
    44    41    40   1
    45    42    41   1
    46    43    42   1
    47    43    44   1
    48    45    46   1
    49    46    47   1
    50    46    54   1
    51    47    48   1
    52    48    49   1
    53    49    50   1
    54    50    51  ar
    55    51    52  ar
    56    51    53  ar
    57    54    55   2
    58    54    56  am
    59    56    57   1
    60    57    58   1
    61    57    65   1
    62    58    59   1
    63    59    60   1
    64    60    61   1
    65    61    62  ar
    66    62    63  ar
    67    62    64  ar
    68    65    66   2
    69    65    67  am
    70     2    68   1
    71     7    69   1
    72     7    70   1
    73     9    71   1
    74    12    72   1
    75    13    73   1
    76    16    74   1
    77    17    75   1
    78    18    76   1
    79    19    77   1
    80    22    78   1
    81    22    79   1
    82    23    80   1
    83    23    81   1
    84    24    82   1
    85    24    83   1
    86    25    84   1
    87    25    85   1
    88    26    86   1
    89    26    87   1
    90    27    88   1
    91    28    89   1
    92    29    90   1
    93    32    91   1
    94    32    92   1
    95    33    93   1
    96    33    94   1
    97    34    95   1
    98    34    96   1
    99    35    97   1
   100    35    98   1
   101    36    99   1
   102    36   100   1
   103    36   101   1
   104    39   102   1
   105    39   103   1
   106    40   104   1
   107    40   105   1
   108    41   106   1
   109    41   107   1
   110    42   108   1
   111    42   109   1
   112    43   110   1
   113    43   111   1
   114    44   112   1
   115    45   113   1
   116    46   114   1
   117    47   115   1
   118    47   116   1
   119    48   117   1
   120    48   118   1
   121    49   119   1
   122    49   120   1
   123    50   121   1
   124    52   122   1
   125    52   123   1
   126    53   124   1
   127    53   125   1
   128    56   126   1
   129    57   127   1
   130    58   128   1
   131    58   129   1
   132    59   130   1
   133    59   131   1
   134    60   132   1
   135    60   133   1
   136    61   134   1
   137    63   135   1
   138    63   136   1
   139    64   137   1
   140    64   138   1
   141    67   139   1
   142    67   140   1
@<TRIPOS>SUBSTRUCTURE
     1  A02      2

