@<TRIPOS>MOLECULE
3ag9_ligand_083
   140   142
SMALL
GAST_HUCK
****
This file was generated by PARSER (from files_GN.cpp)

@<TRIPOS>ATOM
      1 N1          7.2916    5.2661   11.0202 N.ar        1 A02      -0.2698
      2 C2          8.5863    5.0623   11.3849 C.ar        1 A02       0.0533
      3 N3          8.9069    4.9070   12.6972 N.ar        1 A02      -0.2714
      4 C4          7.9386    4.9565   13.6509 C.ar        1 A02       0.1613
      5 C5          6.6082    5.1682   13.2944 C.ar        1 A02       0.1045
      6 C6          6.2867    5.3281   11.9371 C.ar        1 A02       0.1298
      7 N6          5.0289    5.5209   11.5128 N.pl3       1 A02      -0.3152
      8 N7          5.8653    5.1729   14.4103 N.2         1 A02      -0.2958
      9 C8          6.7164    4.9719   15.4323 C.2         1 A02       0.1123
     10 N9          7.9911    4.8367   14.9920 N.pl3       1 A02      -0.1918
     11 OAL        12.5975    2.1617   14.9577 O.2         1 A02      -0.3941
     12 OAN        11.0622    3.3528   18.1872 O.3         1 A02      -0.3840
     13 OAO         8.3825    3.3728   17.7928 O.3         1 A02      -0.3834
     14 OBV        10.3589    4.6010   15.0562 O.3         1 A02      -0.3181
     15 CCC        12.3236    3.3476   14.8855 C.2         1 A02       0.2080
     16 CCK        10.6617    3.0470   16.8474 C.3         1 A02       0.1295
     17 CCL         9.1615    3.3111   16.5971 C.3         1 A02       0.1408
     18 CCM        11.3900    3.9649   15.8197 C.3         1 A02       0.1788
     19 CCN         9.1497    4.6444   15.8250 C.3         1 A02       0.2035
     20 CBZ        12.8466    6.5257    8.0982 C.2         1 A02       0.1782
     21 OAI        11.7669    7.0887    7.9413 O.2         1 A02      -0.3969
     22 CBG        12.8928    5.0791    7.9156 C.3         1 A02       0.0374
     23 CAX        12.3880    4.2780    9.1496 C.3         1 A02      -0.0360
     24 CAU        13.2355    4.4891   10.4368 C.3         1 A02      -0.0492
     25 CAW        12.9170    3.4476   11.5413 C.3         1 A02      -0.0326
     26 CBD        13.7077    3.6738   12.8664 C.3         1 A02       0.0310
     27 NBR        12.8449    4.1053   13.9225 N.am        1 A02      -0.2847
     28 NBS        13.9545    7.1912    8.3915 N.am        1 A02      -0.2656
     29 CCI        14.1603    8.5936    8.6558 C.3         1 A02       0.1308
     30 CCB        13.5396    9.4900    7.6791 C.2         1 A02       0.2016
     31 OAK        14.2347    9.9106    6.7570 O.2         1 A02      -0.3945
     32 CBJ        14.0256    8.9572   10.1740 C.3         1 A02      -0.0122
     33 CAZ        12.6614    8.6918   10.8922 C.3         1 A02      -0.0440
     34 CAS        12.8364    8.1912   12.3569 C.3         1 A02      -0.0124
     35 CAR        11.6007    8.4683   13.2510 C.3         1 A02      -0.0354
     36 NAC        10.4155    7.7107   12.8280 N.4         1 A02       0.2185
     37 CCA        14.5993   13.7065    5.7985 C.2         1 A02       0.1782
     38 OAJ        15.0011   12.9694    6.6943 O.2         1 A02      -0.3969
     39 CBH        13.1591   13.8622    5.6285 C.3         1 A02       0.0374
     40 CAY        12.3763   14.1580    6.9416 C.3         1 A02      -0.0360
     41 CAT        12.0863   12.9512    7.8883 C.3         1 A02      -0.0492
     42 CAV        11.0026   11.9346    7.4044 C.3         1 A02      -0.0326
     43 CBC        11.5241   10.6122    6.7839 C.3         1 A02       0.0310
     44 NBQ        12.2502    9.8082    7.7245 N.am        1 A02      -0.2851
     45 NBT        15.4493   14.3388    5.0022 N.am        1 A02      -0.2656
     46 CCJ        16.8878   14.4206    5.1365 C.3         1 A02       0.1310
     47 CBK        17.2758   15.9135    5.3647 C.3         1 A02      -0.0092
     48 CBB        18.6413   16.1182    6.0858 C.3         1 A02      -0.0156
     49 CBF        18.7656   17.4823    6.8058 C.3         1 A02       0.0627
     50 NBP        18.0853   17.4657    8.0270 N.pl3       1 A02      -0.2723
     51 CBX        18.1370   18.3585    8.9505 C.cat       1 A02       0.2882
     52 NAB        18.8245   19.4318    8.8992 N.pl3       1 A02      -0.2849
     53 NAE        17.4493   18.1594   10.0106 N.pl3       1 A02      -0.2849
     54 CCD        17.5684   13.8676    3.9735 C.2         1 A02       0.2039
     55 OAM        17.0734   14.0175    2.8573 O.2         1 A02      -0.3944
     56 N          18.7456   13.2652    4.1222 N.am        1 A02      -0.2637
     57 CA         19.6682   12.7795    3.1299 C.3         1 A02       0.1307
     58 CB         20.7232   13.8716    2.7511 C.3         1 A02      -0.0092
     59 CG         20.1906   15.2431    2.2444 C.3         1 A02      -0.0156
     60 CD         21.2709   16.3607    2.2792 C.3         1 A02       0.0627
     61 NE         20.7349   17.6529    2.3359 N.pl3       1 A02      -0.2723
     62 CZ         20.1151   18.3001    1.4229 C.cat       1 A02       0.2882
     63 NH1        19.8749   17.8623    0.2454 N.pl3       1 A02      -0.2849
     64 NH2        19.7095   19.4802    1.7085 N.pl3       1 A02      -0.2849
     65 C          19.0285   12.0427    2.0463 C.2         1 A02       0.1992
     66 O          19.2011   12.3260    0.8716 O.2         1 A02      -0.3947
     67 NAF        18.2590   11.0091    2.3090 N.am        1 A02      -0.2990
     68 H1          9.3158    5.0273   10.6724 H           1 A02       0.0996
     69 H2          4.2948    5.5615   12.1475 H           1 A02       0.1820
     70 H3          4.8558    5.5721   10.5586 H           1 A02       0.1820
     71 H4          6.4266    4.9373   16.4111 H           1 A02       0.1349
     72 H5         10.7170    4.2526   18.3687 H           1 A02       0.2102
     73 H6          8.7617    2.6970   18.3981 H           1 A02       0.2101
     74 H7         10.8600    1.9845   16.6890 H           1 A02       0.0673
     75 H8          8.7538    2.5237   15.9546 H           1 A02       0.0678
     76 H9         11.9269    4.7523   16.3570 H           1 A02       0.0869
     77 H10         9.2130    5.4802   16.5319 H           1 A02       0.0998
     78 H11        13.9143    4.7521    7.6836 H           1 A02       0.0502
     79 H12        12.2750    4.8202    7.0488 H           1 A02       0.0502
     80 H13        12.4122    3.2172    8.8782 H           1 A02       0.0290
     81 H14        11.3425    4.5433    9.3520 H           1 A02       0.0290
     82 H15        13.0451    5.4937   10.8230 H           1 A02       0.0267
     83 H16        14.2950    4.4107   10.1772 H           1 A02       0.0267
     84 H17        13.1676    2.4571   11.1526 H           1 A02       0.0285
     85 H18        11.8396    3.4515   11.7318 H           1 A02       0.0285
     86 H19        14.4797    4.4393   12.7440 H           1 A02       0.0520
     87 H20        14.2349    2.7543   13.1365 H           1 A02       0.0520
     88 H21        12.5585    5.0292   13.8914 H           1 A02       0.1851
     89 H22        14.7611    6.6539    8.4667 H           1 A02       0.1883
     90 H23        15.2380    8.7066    8.4904 H           1 A02       0.0800
     91 H24        14.2737   10.0238   10.3006 H           1 A02       0.0312
     92 H25        14.8075    8.3889   10.6975 H           1 A02       0.0312
     93 H26        12.0881    7.9346   10.3447 H           1 A02       0.0269
     94 H27        12.0809    9.6256   10.8929 H           1 A02       0.0269
     95 H28        13.7005    8.6909   12.8070 H           1 A02       0.0317
     96 H29        13.0378    7.1156   12.3452 H           1 A02       0.0317
     97 H30        11.3596    9.5375   13.2465 H           1 A02       0.0813
     98 H31        11.8376    8.1762   14.2772 H           1 A02       0.0813
     99 H32         9.6574    7.8744   13.4955 H           1 A02       0.1994
    100 H33        10.6383    6.7130   12.8027 H           1 A02       0.1994
    101 H34        10.1176    8.0184   11.8968 H           1 A02       0.1994
    102 H35        12.7613   12.9753    5.1443 H           1 A02       0.0502
    103 H36        12.9662   14.6910    4.9431 H           1 A02       0.0502
    104 H37        11.4183   14.6166    6.6797 H           1 A02       0.0290
    105 H38        12.9281   14.9160    7.5068 H           1 A02       0.0290
    106 H39        11.7284   13.3761    8.8319 H           1 A02       0.0267
    107 H40        13.0142   12.4290    8.1247 H           1 A02       0.0267
    108 H41        10.3411   12.4209    6.6794 H           1 A02       0.0285
    109 H42        10.3777   11.6577    8.2595 H           1 A02       0.0285
    110 H43        12.1008   10.8341    5.8885 H           1 A02       0.0520
    111 H44        10.6638   10.0230    6.4575 H           1 A02       0.0520
    112 H45        11.7287    9.4409    8.4513 H           1 A02       0.1851
    113 H46        15.0619   14.8578    4.2754 H           1 A02       0.1883
    114 H47        17.2015   13.8621    6.0291 H           1 A02       0.0800
    115 H48        16.4919   16.3799    5.9639 H           1 A02       0.0313
    116 H49        17.2928   16.4473    4.4107 H           1 A02       0.0313
    117 H50        19.4443   16.0476    5.3530 H           1 A02       0.0301
    118 H51        18.7980   15.3250    6.8213 H           1 A02       0.0301
    119 H52        18.3737   18.2757    6.1619 H           1 A02       0.0689
    120 H53        19.8279   17.6788    6.9818 H           1 A02       0.0689
    121 H54        17.5348   16.7281    8.2007 H           1 A02       0.2642
    122 H55        18.8064   20.0159    9.6302 H           1 A02       0.2615
    123 H56        19.3480   19.6318    8.1501 H           1 A02       0.2615
    124 H57        16.9305   17.3855   10.1020 H           1 A02       0.2615
    125 H58        17.4776   18.7961   10.6957 H           1 A02       0.2615
    126 H59        19.0671   13.2085    5.0383 H           1 A02       0.1883
    127 H60        20.2509   12.0184    3.6619 H           1 A02       0.0800
    128 H61        21.3937   13.4601    1.9907 H           1 A02       0.0313
    129 H62        21.3285   14.0500    3.6480 H           1 A02       0.0313
    130 H63        19.3546   15.5582    2.8661 H           1 A02       0.0301
    131 H64        19.8197   15.1337    1.2254 H           1 A02       0.0301
    132 H65        21.9485   16.2600    1.4282 H           1 A02       0.0689
    133 H66        21.8681   16.2490    3.1857 H           1 A02       0.0689
    134 H67        20.8690   18.1106    3.1451 H           1 A02       0.2642
    135 H68        19.4154   18.3983   -0.3685 H           1 A02       0.2615
    136 H69        20.1620   17.0107   -0.0090 H           1 A02       0.2615
    137 H70        19.8699   19.8326    2.5606 H           1 A02       0.2615
    138 H71        19.2503   19.9901    1.0731 H           1 A02       0.2615
    139 H72        17.8282   10.5219    1.5887 H           1 A02       0.1815
    140 H73        18.1025   10.7388    3.2270 H           1 A02       0.1815
@<TRIPOS>BOND
     1     2     1  ar
     2     6     1  ar
     3     3     2  ar
     4     4     3  ar
     5     4     5  ar
     6    10     4   1
     7     5     6  ar
     8     8     5   1
     9     6     7   1
    10     9     8   2
    11    10     9   1
    12    19    10   1
    13    15    11   2
    14    16    12   1
    15    17    13   1
    16    18    14   1
    17    14    19   1
    18    15    18   1
    19    27    15  am
    20    16    17   1
    21    18    16   1
    22    17    19   1
    23    20    21   2
    24    20    22   1
    25    28    20  am
    26    22    23   1
    27    23    24   1
    28    24    25   1
    29    25    26   1
    30    26    27   1
    31    29    28   1
    32    30    29   1
    33    29    32   1
    34    30    31   2
    35    44    30  am
    36    32    33   1
    37    33    34   1
    38    34    35   1
    39    35    36   1
    40    37    38   2
    41    39    37   1
    42    37    45  am
    43    40    39   1
    44    41    40   1
    45    42    41   1
    46    43    42   1
    47    43    44   1
    48    45    46   1
    49    46    47   1
    50    46    54   1
    51    47    48   1
    52    48    49   1
    53    49    50   1
    54    50    51  ar
    55    51    52  ar
    56    51    53  ar
    57    54    55   2
    58    54    56  am
    59    56    57   1
    60    57    58   1
    61    57    65   1
    62    58    59   1
    63    59    60   1
    64    60    61   1
    65    61    62  ar
    66    62    63  ar
    67    62    64  ar
    68    65    66   2
    69    65    67  am
    70     2    68   1
    71     7    69   1
    72     7    70   1
    73     9    71   1
    74    12    72   1
    75    13    73   1
    76    16    74   1
    77    17    75   1
    78    18    76   1
    79    19    77   1
    80    22    78   1
    81    22    79   1
    82    23    80   1
    83    23    81   1
    84    24    82   1
    85    24    83   1
    86    25    84   1
    87    25    85   1
    88    26    86   1
    89    26    87   1
    90    27    88   1
    91    28    89   1
    92    29    90   1
    93    32    91   1
    94    32    92   1
    95    33    93   1
    96    33    94   1
    97    34    95   1
    98    34    96   1
    99    35    97   1
   100    35    98   1
   101    36    99   1
   102    36   100   1
   103    36   101   1
   104    39   102   1
   105    39   103   1
   106    40   104   1
   107    40   105   1
   108    41   106   1
   109    41   107   1
   110    42   108   1
   111    42   109   1
   112    43   110   1
   113    43   111   1
   114    44   112   1
   115    45   113   1
   116    46   114   1
   117    47   115   1
   118    47   116   1
   119    48   117   1
   120    48   118   1
   121    49   119   1
   122    49   120   1
   123    50   121   1
   124    52   122   1
   125    52   123   1
   126    53   124   1
   127    53   125   1
   128    56   126   1
   129    57   127   1
   130    58   128   1
   131    58   129   1
   132    59   130   1
   133    59   131   1
   134    60   132   1
   135    60   133   1
   136    61   134   1
   137    63   135   1
   138    63   136   1
   139    64   137   1
   140    64   138   1
   141    67   139   1
   142    67   140   1
@<TRIPOS>SUBSTRUCTURE
     1  A02      2

