@<TRIPOS>MOLECULE
3ag9_ligand_013
   140   142
SMALL
GAST_HUCK
****
This file was generated by PARSER (from files_GN.cpp)

@<TRIPOS>ATOM
      1 N1          7.2813    5.0514   11.7341 N.ar        1 A02      -0.2698
      2 C2          8.5886    4.7886   11.4607 C.ar        1 A02       0.0533
      3 N3          9.4254    4.3779   12.4536 N.ar        1 A02      -0.2714
      4 C4          8.9575    4.2376   13.7216 C.ar        1 A02       0.1613
      5 C5          7.6226    4.5020   14.0181 C.ar        1 A02       0.1045
      6 C6          6.7650    4.9195   12.9865 C.ar        1 A02       0.1298
      7 N6          5.4668    5.1681   13.2174 N.pl3       1 A02      -0.3152
      8 N7          7.4165    4.2748   15.3209 N.2         1 A02      -0.2958
      9 C8          8.6019    3.8784   15.8232 C.2         1 A02       0.1123
     10 N9          9.5545    3.8518   14.8645 N.pl3       1 A02      -0.1918
     11 OAL        14.6746    2.7261   12.5282 O.2         1 A02      -0.3941
     12 OAN        12.9765    0.4643   14.4944 O.3         1 A02      -0.3840
     13 OAO        11.4222    1.4876   16.5033 O.3         1 A02      -0.3834
     14 OBV        11.7867    3.8508   14.0145 O.3         1 A02      -0.3181
     15 CCC        13.4764    2.9597   12.5938 C.2         1 A02       0.2080
     16 CCK        12.0866    1.5205   14.1151 C.3         1 A02       0.1295
     17 CCL        11.0396    1.8878   15.1868 C.3         1 A02       0.1408
     18 CCM        12.8141    2.8608   13.8837 C.3         1 A02       0.1788
     19 CCN        10.9135    3.4308   15.0765 C.3         1 A02       0.2035
     20 CBZ        11.1964    3.1646    7.3291 C.2         1 A02       0.1782
     21 OAI        10.3556    3.6258    8.0991 O.2         1 A02      -0.3969
     22 CBG        11.4244    1.7282    7.3416 C.3         1 A02       0.0374
     23 CAX        12.9112    1.2660    7.2834 C.3         1 A02      -0.0360
     24 CAU        13.9733    2.1110    8.0446 C.3         1 A02      -0.0492
     25 CAW        13.8683    2.1345    9.6067 C.3         1 A02      -0.0326
     26 CBD        13.3034    3.4561   10.1890 C.3         1 A02       0.0310
     27 NBR        12.7860    3.3029   11.5157 N.am        1 A02      -0.2847
     28 NBS        11.8678    3.9736    6.5070 N.am        1 A02      -0.2656
     29 CCI        11.8011    5.4151    6.4740 C.3         1 A02       0.1308
     30 CCB        12.8670    6.0188    5.6653 C.2         1 A02       0.2016
     31 OAK        13.6493    5.3068    5.0523 O.2         1 A02      -0.3945
     32 CBJ        10.3849    5.9263    6.0174 C.3         1 A02      -0.0122
     33 CAZ         9.8725    7.2140    6.7437 C.3         1 A02      -0.0440
     34 CAS         8.4024    7.1357    7.2399 C.3         1 A02      -0.0124
     35 CAR         7.3633    6.8739    6.1252 C.3         1 A02      -0.0354
     36 NAC         5.9991    6.8745    6.6706 N.4         1 A02       0.2185
     37 CCA        14.8159   12.7576    6.4485 C.2         1 A02       0.1782
     38 OAJ        13.9345   12.4172    7.2232 O.2         1 A02      -0.3969
     39 CBH        16.0281   11.9502    6.3948 C.3         1 A02       0.0374
     40 CAY        16.2825   11.1669    5.0756 C.3         1 A02      -0.0360
     41 CAT        15.1176   10.3059    4.5170 C.3         1 A02      -0.0492
     42 CAV        14.6236    9.1572    5.4387 C.3         1 A02      -0.0326
     43 CBC        13.7435    8.1241    4.6806 C.3         1 A02       0.0310
     44 NBQ        12.9260    7.3414    5.5657 N.am        1 A02      -0.2851
     45 NBT        14.7392   13.8981    5.7750 N.am        1 A02      -0.2656
     46 CCJ        13.7600   14.9470    5.9376 C.3         1 A02       0.1310
     47 CBK        12.3107   14.5580    5.5014 C.3         1 A02      -0.0092
     48 CBB        11.5384   13.6373    6.4845 C.3         1 A02      -0.0156
     49 CBF         9.9978   13.7893    6.3706 C.3         1 A02       0.0627
     50 NBP         9.3450   12.9721    7.3015 N.pl3       1 A02      -0.2723
     51 CBX         8.6156   11.9345    7.1013 C.cat       1 A02       0.2882
     52 NAB         8.3313   11.4261    5.9629 N.pl3       1 A02      -0.2849
     53 NAE         8.1366   11.3673    8.1421 N.pl3       1 A02      -0.2849
     54 CCD        14.2342   16.0921    5.1715 C.2         1 A02       0.2039
     55 OAM        13.6566   16.3875    4.1239 O.2         1 A02      -0.3944
     56 N          15.2948   16.7954    5.5664 N.am        1 A02      -0.2637
     57 CA         15.8135   17.9795    4.9381 C.3         1 A02       0.1307
     58 CB         16.8397   18.7080    5.8584 C.3         1 A02      -0.0092
     59 CG         18.2786   18.1156    5.8539 C.3         1 A02      -0.0156
     60 CD         18.6256   17.0854    6.9654 C.3         1 A02       0.0627
     61 NE         17.9940   17.2510    8.2017 N.pl3       1 A02      -0.2723
     62 CZ         18.1017   18.2032    9.0600 C.cat       1 A02       0.2882
     63 NH1        18.8447   19.2417    8.9449 N.pl3       1 A02      -0.2849
     64 NH2        17.4173   18.1108   10.1304 N.pl3       1 A02      -0.2849
     65 C          14.7125   18.8721    4.5696 C.2         1 A02       0.1992
     66 O          14.1426   19.5450    5.4148 O.2         1 A02      -0.3947
     67 NAF        14.3316   19.0214    3.3202 N.am        1 A02      -0.2990
     68 H1          8.9429    4.8984   10.5101 H           1 A02       0.0996
     69 H2          5.1025    5.0584   14.1095 H           1 A02       0.1820
     70 H3          4.8862    5.4392   12.4891 H           1 A02       0.1820
     71 H4          8.7456    3.6275   16.8052 H           1 A02       0.1349
     72 H5         13.4482    0.7939   15.2891 H           1 A02       0.2102
     73 H6         12.2367    1.9917   16.7135 H           1 A02       0.2101
     74 H7         11.5660    1.2128   13.2001 H           1 A02       0.0673
     75 H8         10.1027    1.3829   14.9471 H           1 A02       0.0678
     76 H9         13.5467    3.0096   14.6882 H           1 A02       0.0869
     77 H10        11.2829    3.9134   15.9886 H           1 A02       0.0998
     78 H11        10.8950    1.2967    6.4878 H           1 A02       0.0502
     79 H12        10.9705    1.2903    8.2362 H           1 A02       0.0502
     80 H13        13.2107    1.2229    6.2335 H           1 A02       0.0290
     81 H14        12.9472    0.2434    7.6658 H           1 A02       0.0290
     82 H15        13.9740    3.1320    7.6429 H           1 A02       0.0267
     83 H16        14.9478    1.6795    7.7909 H           1 A02       0.0267
     84 H17        14.8679    2.0064   10.0336 H           1 A02       0.0285
     85 H18        13.2589    1.2935    9.9463 H           1 A02       0.0285
     86 H19        12.4839    3.8081    9.5668 H           1 A02       0.0520
     87 H20        14.0765    4.2322   10.1716 H           1 A02       0.0520
     88 H21        11.8421    3.4970   11.6359 H           1 A02       0.1851
     89 H22        12.5107    3.5440    5.9242 H           1 A02       0.1883
     90 H23        11.9865    5.7245    7.5003 H           1 A02       0.0800
     91 H24         9.6417    5.1337    6.1585 H           1 A02       0.0312
     92 H25        10.3903    6.1196    4.9364 H           1 A02       0.0312
     93 H26         9.9845    8.0720    6.0769 H           1 A02       0.0269
     94 H27        10.4886    7.4088    7.6234 H           1 A02       0.0269
     95 H28         8.1548    8.0814    7.7282 H           1 A02       0.0317
     96 H29         8.3277    6.3500    7.9979 H           1 A02       0.0317
     97 H30         7.5377    5.9043    5.6563 H           1 A02       0.0813
     98 H31         7.4347    7.6502    5.3609 H           1 A02       0.0813
     99 H32         5.3326    6.6991    5.9167 H           1 A02       0.1994
    100 H33         5.7981    7.7839    7.0947 H           1 A02       0.1994
    101 H34         5.9101    6.1441    7.3823 H           1 A02       0.1994
    102 H35        16.0510   11.2376    7.2247 H           1 A02       0.0502
    103 H36        16.8736   12.6288    6.5397 H           1 A02       0.0502
    104 H37        17.1485   10.5135    5.2363 H           1 A02       0.0290
    105 H38        16.5744   11.8828    4.3020 H           1 A02       0.0290
    106 H39        15.4665    9.8728    3.5755 H           1 A02       0.0267
    107 H40        14.2781   10.9617    4.2824 H           1 A02       0.0267
    108 H41        14.0512    9.5879    6.2639 H           1 A02       0.0285
    109 H42        15.4817    8.6289    5.8631 H           1 A02       0.0285
    110 H43        14.3907    7.5011    4.0520 H           1 A02       0.0520
    111 H44        13.0564    8.6525    4.0094 H           1 A02       0.0520
    112 H45        12.2905    7.8462    6.0942 H           1 A02       0.1851
    113 H46        15.5028   14.1126    5.2149 H           1 A02       0.1883
    114 H47        13.7158   15.2314    6.9940 H           1 A02       0.0800
    115 H48        12.3403   14.0751    4.5229 H           1 A02       0.0313
    116 H49        11.7296   15.4792    5.3979 H           1 A02       0.0313
    117 H50        11.8446   13.8684    7.5105 H           1 A02       0.0301
    118 H51        11.7858   12.5928    6.2780 H           1 A02       0.0301
    119 H52         9.6987   13.5825    5.3393 H           1 A02       0.0689
    120 H53         9.7178   14.8208    6.5966 H           1 A02       0.0689
    121 H54         9.4459   13.2121    8.2008 H           1 A02       0.2642
    122 H55         7.7892   10.6640    5.9140 H           1 A02       0.2615
    123 H56         8.6603   11.8052    5.1748 H           1 A02       0.2615
    124 H57         8.3359   11.7155    8.9854 H           1 A02       0.2615
    125 H58         7.5914   10.6146    8.0630 H           1 A02       0.2615
    126 H59        15.7607   16.4535    6.3503 H           1 A02       0.1883
    127 H60        16.3520   17.6855    4.0338 H           1 A02       0.0800
    128 H61        16.4605   18.7456    6.8834 H           1 A02       0.0313
    129 H62        16.9247   19.7408    5.5095 H           1 A02       0.0313
    130 H63        18.9807   18.9484    5.9382 H           1 A02       0.0301
    131 H64        18.4734   17.6535    4.8833 H           1 A02       0.0301
    132 H65        19.7063   17.0916    7.1250 H           1 A02       0.0689
    133 H66        18.3618   16.0858    6.6049 H           1 A02       0.0689
    134 H67        17.4136   16.5669    8.4599 H           1 A02       0.2642
    135 H68        18.8360   19.8726    9.6315 H           1 A02       0.2615
    136 H69        19.3961   19.3561    8.2033 H           1 A02       0.2615
    137 H70        16.8780   17.3619   10.2754 H           1 A02       0.2615
    138 H71        17.4732   18.7919   10.7671 H           1 A02       0.2615
    139 H72        13.6147   19.6383    3.0993 H           1 A02       0.1815
    140 H73        14.7772   18.5401    2.6072 H           1 A02       0.1815
@<TRIPOS>BOND
     1     2     1  ar
     2     6     1  ar
     3     3     2  ar
     4     4     3  ar
     5     4     5  ar
     6    10     4   1
     7     5     6  ar
     8     8     5   1
     9     6     7   1
    10     9     8   2
    11    10     9   1
    12    19    10   1
    13    15    11   2
    14    16    12   1
    15    17    13   1
    16    18    14   1
    17    14    19   1
    18    15    18   1
    19    27    15  am
    20    16    17   1
    21    18    16   1
    22    17    19   1
    23    20    21   2
    24    20    22   1
    25    28    20  am
    26    22    23   1
    27    23    24   1
    28    24    25   1
    29    25    26   1
    30    26    27   1
    31    29    28   1
    32    30    29   1
    33    29    32   1
    34    30    31   2
    35    44    30  am
    36    32    33   1
    37    33    34   1
    38    34    35   1
    39    35    36   1
    40    37    38   2
    41    39    37   1
    42    37    45  am
    43    40    39   1
    44    41    40   1
    45    42    41   1
    46    43    42   1
    47    43    44   1
    48    45    46   1
    49    46    47   1
    50    46    54   1
    51    47    48   1
    52    48    49   1
    53    49    50   1
    54    50    51  ar
    55    51    52  ar
    56    51    53  ar
    57    54    55   2
    58    54    56  am
    59    56    57   1
    60    57    58   1
    61    57    65   1
    62    58    59   1
    63    59    60   1
    64    60    61   1
    65    61    62  ar
    66    62    63  ar
    67    62    64  ar
    68    65    66   2
    69    65    67  am
    70     2    68   1
    71     7    69   1
    72     7    70   1
    73     9    71   1
    74    12    72   1
    75    13    73   1
    76    16    74   1
    77    17    75   1
    78    18    76   1
    79    19    77   1
    80    22    78   1
    81    22    79   1
    82    23    80   1
    83    23    81   1
    84    24    82   1
    85    24    83   1
    86    25    84   1
    87    25    85   1
    88    26    86   1
    89    26    87   1
    90    27    88   1
    91    28    89   1
    92    29    90   1
    93    32    91   1
    94    32    92   1
    95    33    93   1
    96    33    94   1
    97    34    95   1
    98    34    96   1
    99    35    97   1
   100    35    98   1
   101    36    99   1
   102    36   100   1
   103    36   101   1
   104    39   102   1
   105    39   103   1
   106    40   104   1
   107    40   105   1
   108    41   106   1
   109    41   107   1
   110    42   108   1
   111    42   109   1
   112    43   110   1
   113    43   111   1
   114    44   112   1
   115    45   113   1
   116    46   114   1
   117    47   115   1
   118    47   116   1
   119    48   117   1
   120    48   118   1
   121    49   119   1
   122    49   120   1
   123    50   121   1
   124    52   122   1
   125    52   123   1
   126    53   124   1
   127    53   125   1
   128    56   126   1
   129    57   127   1
   130    58   128   1
   131    58   129   1
   132    59   130   1
   133    59   131   1
   134    60   132   1
   135    60   133   1
   136    61   134   1
   137    63   135   1
   138    63   136   1
   139    64   137   1
   140    64   138   1
   141    67   139   1
   142    67   140   1
@<TRIPOS>SUBSTRUCTURE
     1  A02      2

