@<TRIPOS>MOLECULE
3ag9_ligand_024
   140   142
SMALL
GAST_HUCK
****
This file was generated by PARSER (from files_GN.cpp)

@<TRIPOS>ATOM
      1 N1         22.4252    1.2779    9.1697 N.ar        1 A02      -0.2698
      2 C2         22.5402    2.3375    8.3247 C.ar        1 A02       0.0533
      3 N3         21.4546    3.1140    8.0618 N.ar        1 A02      -0.2714
      4 C4         20.2575    2.8355    8.6373 C.ar        1 A02       0.1613
      5 C5         20.1257    1.7634    9.5176 C.ar        1 A02       0.1045
      6 C6         21.2509    0.9625    9.7812 C.ar        1 A02       0.1298
      7 N6         21.2133   -0.0902   10.6161 N.pl3       1 A02      -0.3152
      8 N7         18.8530    1.7318    9.9479 N.2         1 A02      -0.2958
      9 C8         18.2186    2.7441    9.3312 C.2         1 A02       0.1123
     10 N9         19.0578    3.4323    8.5239 N.pl3       1 A02      -0.1918
     11 OAL        15.6031    4.0366    5.7696 O.2         1 A02      -0.3941
     12 OAN        18.9132    6.6923    5.3820 O.3         1 A02      -0.3840
     13 OAO        20.3953    4.4689    5.8545 O.3         1 A02      -0.3834
     14 OBV        17.3479    4.9292    7.7615 O.3         1 A02      -0.3181
     15 CCC        15.7227    5.2167    6.0730 C.2         1 A02       0.2080
     16 CCK        18.1701    5.4784    5.5568 C.3         1 A02       0.1295
     17 CCL        19.0167    4.3684    6.2069 C.3         1 A02       0.1408
     18 CCM        17.0111    5.6753    6.5766 C.3         1 A02       0.1788
     19 CCN        18.7424    4.5763    7.7110 C.3         1 A02       0.2035
     20 CBZ        11.1006    4.3095    9.5453 C.2         1 A02       0.1782
     21 OAI        10.3053    5.2387    9.4726 O.2         1 A02      -0.3969
     22 CBG        10.8874    3.1391    8.7146 C.3         1 A02       0.0374
     23 CAX        11.0409    3.3912    7.1907 C.3         1 A02      -0.0360
     24 CAU        12.4134    3.9657    6.7195 C.3         1 A02      -0.0492
     25 CAW        12.3387    5.4201    6.1603 C.3         1 A02      -0.0326
     26 CBD        13.4967    5.8328    5.2123 C.3         1 A02       0.0310
     27 NBR        14.7447    6.0901    5.8614 N.am        1 A02      -0.2847
     28 NBS        12.1024    4.3111   10.4167 N.am        1 A02      -0.2656
     29 CCI        12.4832    5.3195   11.3640 C.3         1 A02       0.1308
     30 CCB        13.4902    6.2133   10.7912 C.2         1 A02       0.2016
     31 OAK        14.4988    6.4459   11.4474 O.2         1 A02      -0.3945
     32 CBJ        11.2772    6.0624   12.0370 C.3         1 A02      -0.0122
     33 CAZ        11.4818    6.4343   13.5386 C.3         1 A02      -0.0440
     34 CAS        11.4525    5.2646   14.5699 C.3         1 A02      -0.0124
     35 CAR        10.0530    4.6291   14.8269 C.3         1 A02      -0.0354
     36 NAC         9.8243    3.3995   14.0491 N.4         1 A02       0.2185
     37 CCA        14.3351   12.2216    6.0193 C.2         1 A02       0.1782
     38 OAJ        13.5160   11.9691    5.1361 O.2         1 A02      -0.3969
     39 CBH        15.0629   11.1020    6.6163 C.3         1 A02       0.0374
     40 CAY        15.1879   11.1368    8.1708 C.3         1 A02      -0.0360
     41 CAT        15.6166    9.8055    8.8691 C.3         1 A02      -0.0492
     42 CAV        14.4788    8.9491    9.5172 C.3         1 A02      -0.0326
     43 CBC        14.2822    7.5475    8.8736 C.3         1 A02       0.0310
     44 NBQ        13.3353    6.7292    9.5737 N.am        1 A02      -0.2851
     45 NBT        14.4877   13.4725    6.4470 N.am        1 A02      -0.2656
     46 CCJ        13.7240   14.6406    6.1157 C.3         1 A02       0.1310
     47 CBK        12.1813   14.3703    6.0000 C.3         1 A02      -0.0092
     48 CBB        11.4837   13.9437    7.3397 C.3         1 A02      -0.0156
     49 CBF        11.2270   12.4128    7.4956 C.3         1 A02       0.0627
     50 NBP        10.3464   11.9180    6.5240 N.pl3       1 A02      -0.2723
     51 CBX         9.0645   11.9074    6.5593 C.cat       1 A02       0.2882
     52 NAB         8.3512   12.3289    7.5349 N.pl3       1 A02      -0.2849
     53 NAE         8.4527   11.4336    5.5446 N.pl3       1 A02      -0.2849
     54 CCD        14.3257   15.3603    4.9958 C.2         1 A02       0.2039
     55 OAM        13.7134   15.4860    3.9450 O.2         1 A02      -0.3944
     56 N          15.5150   15.9358    5.1692 N.am        1 A02      -0.2637
     57 CA         16.1815   16.8187    4.2463 C.3         1 A02       0.1307
     58 CB         17.6897   17.0174    4.6116 C.3         1 A02      -0.0092
     59 CG         17.9918   17.8505    5.8988 C.3         1 A02      -0.0156
     60 CD         18.6491   17.0363    7.0507 C.3         1 A02       0.0627
     61 NE         18.0339   17.2201    8.2866 N.pl3       1 A02      -0.2723
     62 CZ         18.1491   18.1887    9.1158 C.cat       1 A02       0.2882
     63 NH1        18.8989   19.2157    8.9786 N.pl3       1 A02      -0.2849
     64 NH2        17.4383   18.1181   10.1740 N.pl3       1 A02      -0.2849
     65 C          15.4920   18.1032    4.1142 C.2         1 A02       0.1992
     66 O          15.4574   18.6717    3.0309 O.2         1 A02      -0.3947
     67 NAF        14.9027   18.7105    5.1213 N.am        1 A02      -0.2990
     68 H1         23.4379    2.5451    7.8861 H           1 A02       0.0996
     69 H2         20.4075   -0.2863   11.1204 H           1 A02       0.1820
     70 H3         22.0197   -0.6135   10.7640 H           1 A02       0.1820
     71 H4         17.2304    2.9567    9.4812 H           1 A02       0.1349
     72 H5         19.2429    6.9269    6.2767 H           1 A02       0.2102
     73 H6         20.4423    4.1890    4.9138 H           1 A02       0.2101
     74 H7         17.8225    5.1619    4.5655 H           1 A02       0.0673
     75 H8         18.6394    3.3896    5.8942 H           1 A02       0.0678
     76 H9         16.9526    6.7324    6.8638 H           1 A02       0.0869
     77 H10        19.3249    5.4285    8.0772 H           1 A02       0.0998
     78 H11         9.8714    2.7706    8.8983 H           1 A02       0.0502
     79 H12        11.5728    2.3300    8.9944 H           1 A02       0.0502
     80 H13        10.2275    4.0441    6.8689 H           1 A02       0.0290
     81 H14        10.8791    2.4286    6.6958 H           1 A02       0.0290
     82 H15        12.7984    3.3175    5.9271 H           1 A02       0.0267
     83 H16        13.1361    3.9329    7.5401 H           1 A02       0.0267
     84 H17        12.2854    6.1265    6.9913 H           1 A02       0.0285
     85 H18        11.4122    5.5265    5.5835 H           1 A02       0.0285
     86 H19        13.2075    6.7733    4.7332 H           1 A02       0.0520
     87 H20        13.6197    5.0976    4.4111 H           1 A02       0.0520
     88 H21        14.9372    7.0201    6.0674 H           1 A02       0.1851
     89 H22        12.6476    3.5056   10.4330 H           1 A02       0.1883
     90 H23        12.9659    4.7291   12.1526 H           1 A02       0.0800
     91 H24        10.3715    5.4549   11.9675 H           1 A02       0.0312
     92 H25        11.0771    6.9929   11.4967 H           1 A02       0.0312
     93 H26        10.6993    7.1500   13.8257 H           1 A02       0.0269
     94 H27        12.4456    6.9548   13.6447 H           1 A02       0.0269
     95 H28        11.8069    5.6670   15.5218 H           1 A02       0.0317
     96 H29        12.1578    4.4854   14.2749 H           1 A02       0.0317
     97 H30         9.2559    5.3455   14.5995 H           1 A02       0.0813
     98 H31         9.9695    4.3574   15.8842 H           1 A02       0.0813
     99 H32         8.8687    3.0681   14.2157 H           1 A02       0.1994
    100 H33        10.4895    2.6797   14.3486 H           1 A02       0.1994
    101 H34         9.9479    3.5771   13.0469 H           1 A02       0.1994
    102 H35        16.0716   11.0788    6.1789 H           1 A02       0.0502
    103 H36        14.5617   10.1659    6.3451 H           1 A02       0.0502
    104 H37        14.2340   11.4734    8.5864 H           1 A02       0.0290
    105 H38        15.9391   11.8959    8.4137 H           1 A02       0.0290
    106 H39        16.2918   10.0870    9.6837 H           1 A02       0.0267
    107 H40        16.2071    9.1989    8.1752 H           1 A02       0.0267
    108 H41        13.5225    9.4860    9.4907 H           1 A02       0.0285
    109 H42        14.7271    8.8056   10.5752 H           1 A02       0.0285
    110 H43        15.2415    7.0204    8.8214 H           1 A02       0.0520
    111 H44        13.9150    7.6877    7.8523 H           1 A02       0.0520
    112 H45        12.5262    6.4883    9.0931 H           1 A02       0.1851
    113 H46        15.2082   13.6370    7.0733 H           1 A02       0.1883
    114 H47        13.8204   15.3128    6.9801 H           1 A02       0.0800
    115 H48        11.9906   13.6222    5.2200 H           1 A02       0.0313
    116 H49        11.7104   15.3099    5.6752 H           1 A02       0.0313
    117 H50        10.5117   14.4558    7.4101 H           1 A02       0.0301
    118 H51        12.0850   14.2728    8.2000 H           1 A02       0.0301
    119 H52        10.8416   12.2011    8.5058 H           1 A02       0.0689
    120 H53        12.1710   11.8706    7.3884 H           1 A02       0.0689
    121 H54        10.7361   11.5534    5.7556 H           1 A02       0.2642
    122 H55         7.4169   12.2840    7.4858 H           1 A02       0.2615
    123 H56         8.7505   12.6642    8.3105 H           1 A02       0.2615
    124 H57         8.9409   11.1164    4.8089 H           1 A02       0.2615
    125 H58         7.5140   11.4061    5.5257 H           1 A02       0.2615
    126 H59        15.9446   15.7678    6.0245 H           1 A02       0.1883
    127 H60        16.1643   16.3243    3.2677 H           1 A02       0.0800
    128 H61        18.1886   17.4911    3.7580 H           1 A02       0.0313
    129 H62        18.1437   16.0242    4.7013 H           1 A02       0.0313
    130 H63        17.0723   18.3073    6.2597 H           1 A02       0.0301
    131 H64        18.6657   18.6685    5.6339 H           1 A02       0.0301
    132 H65        19.7125   17.2749    7.1189 H           1 A02       0.0689
    133 H66        18.5711   15.9678    6.8285 H           1 A02       0.0689
    134 H67        17.4379   16.5479    8.5368 H           1 A02       0.2642
    135 H68        18.8930   19.8640    9.6508 H           1 A02       0.2615
    136 H69        19.4382   19.3149    8.2235 H           1 A02       0.2615
    137 H70        16.8765   17.3808   10.3023 H           1 A02       0.2615
    138 H71        17.4822   18.8032   10.8062 H           1 A02       0.2615
    139 H72        14.4631   19.5698    4.9849 H           1 A02       0.1815
    140 H73        14.8895   18.3014    6.0021 H           1 A02       0.1815
@<TRIPOS>BOND
     1     2     1  ar
     2     6     1  ar
     3     3     2  ar
     4     4     3  ar
     5     4     5  ar
     6    10     4   1
     7     5     6  ar
     8     8     5   1
     9     6     7   1
    10     9     8   2
    11    10     9   1
    12    19    10   1
    13    15    11   2
    14    16    12   1
    15    17    13   1
    16    18    14   1
    17    14    19   1
    18    15    18   1
    19    27    15  am
    20    16    17   1
    21    18    16   1
    22    17    19   1
    23    20    21   2
    24    20    22   1
    25    28    20  am
    26    22    23   1
    27    23    24   1
    28    24    25   1
    29    25    26   1
    30    26    27   1
    31    29    28   1
    32    30    29   1
    33    29    32   1
    34    30    31   2
    35    44    30  am
    36    32    33   1
    37    33    34   1
    38    34    35   1
    39    35    36   1
    40    37    38   2
    41    39    37   1
    42    37    45  am
    43    40    39   1
    44    41    40   1
    45    42    41   1
    46    43    42   1
    47    43    44   1
    48    45    46   1
    49    46    47   1
    50    46    54   1
    51    47    48   1
    52    48    49   1
    53    49    50   1
    54    50    51  ar
    55    51    52  ar
    56    51    53  ar
    57    54    55   2
    58    54    56  am
    59    56    57   1
    60    57    58   1
    61    57    65   1
    62    58    59   1
    63    59    60   1
    64    60    61   1
    65    61    62  ar
    66    62    63  ar
    67    62    64  ar
    68    65    66   2
    69    65    67  am
    70     2    68   1
    71     7    69   1
    72     7    70   1
    73     9    71   1
    74    12    72   1
    75    13    73   1
    76    16    74   1
    77    17    75   1
    78    18    76   1
    79    19    77   1
    80    22    78   1
    81    22    79   1
    82    23    80   1
    83    23    81   1
    84    24    82   1
    85    24    83   1
    86    25    84   1
    87    25    85   1
    88    26    86   1
    89    26    87   1
    90    27    88   1
    91    28    89   1
    92    29    90   1
    93    32    91   1
    94    32    92   1
    95    33    93   1
    96    33    94   1
    97    34    95   1
    98    34    96   1
    99    35    97   1
   100    35    98   1
   101    36    99   1
   102    36   100   1
   103    36   101   1
   104    39   102   1
   105    39   103   1
   106    40   104   1
   107    40   105   1
   108    41   106   1
   109    41   107   1
   110    42   108   1
   111    42   109   1
   112    43   110   1
   113    43   111   1
   114    44   112   1
   115    45   113   1
   116    46   114   1
   117    47   115   1
   118    47   116   1
   119    48   117   1
   120    48   118   1
   121    49   119   1
   122    49   120   1
   123    50   121   1
   124    52   122   1
   125    52   123   1
   126    53   124   1
   127    53   125   1
   128    56   126   1
   129    57   127   1
   130    58   128   1
   131    58   129   1
   132    59   130   1
   133    59   131   1
   134    60   132   1
   135    60   133   1
   136    61   134   1
   137    63   135   1
   138    63   136   1
   139    64   137   1
   140    64   138   1
   141    67   139   1
   142    67   140   1
@<TRIPOS>SUBSTRUCTURE
     1  A02      2

