@<TRIPOS>MOLECULE
3ag9_ligand_014
   140   142
SMALL
GAST_HUCK
****
This file was generated by PARSER (from files_GN.cpp)

@<TRIPOS>ATOM
      1 N1          8.0676    4.5838   17.0886 N.ar        1 A02      -0.2698
      2 C2          7.4854    5.2956   16.0801 C.ar        1 A02       0.0533
      3 N3          8.2389    5.7515   15.0438 N.ar        1 A02      -0.2714
      4 C4          9.5713    5.4964   15.0125 C.ar        1 A02       0.1613
      5 C5         10.1830    4.7658   16.0289 C.ar        1 A02       0.1045
      6 C6          9.3994    4.3041   17.0987 C.ar        1 A02       0.1298
      7 N6          9.9426    3.5904   18.0972 N.pl3       1 A02      -0.3152
      8 N7         11.4814    4.6259   15.7330 N.2         1 A02      -0.2958
      9 C8         11.6700    5.2535   14.5596 C.2         1 A02       0.1123
     10 N9         10.5182    5.8036   14.1084 N.pl3       1 A02      -0.1918
     11 OAL        13.5707    5.8939   11.2142 O.2         1 A02      -0.3941
     12 OAN        10.4089    8.5308   10.5218 O.3         1 A02      -0.3840
     13 OAO        10.7546    8.9376   13.2514 O.3         1 A02      -0.3834
     14 OBV        10.5112    5.6311   11.7697 O.3         1 A02      -0.3181
     15 CCC        12.5466    5.4972   10.6686 C.2         1 A02       0.2080
     16 CCK        11.4370    7.7650   11.1564 C.3         1 A02       0.1295
     17 CCL        11.2670    7.7314   12.6829 C.3         1 A02       0.1408
     18 CCM        11.3139    6.2664   10.7653 C.3         1 A02       0.1788
     19 CCN        10.3252    6.5214   12.8788 C.3         1 A02       0.2035
     20 CBZ        16.7494    1.1031    5.9829 C.2         1 A02       0.1782
     21 OAI        16.7845    1.2336    4.7653 O.2         1 A02      -0.3969
     22 CBG        15.8573    0.1179    6.5762 C.3         1 A02       0.0374
     23 CAX        14.5190    0.7095    7.1126 C.3         1 A02      -0.0360
     24 CAU        14.6824    1.6877    8.3095 C.3         1 A02      -0.0492
     25 CAW        13.3750    2.3896    8.7572 C.3         1 A02      -0.0326
     26 CBD        13.6714    3.5126    9.7876 C.3         1 A02       0.0310
     27 NBR        12.5353    4.3512    9.9959 N.am        1 A02      -0.2847
     28 NBS        17.4611    1.8880    6.7831 N.am        1 A02      -0.2656
     29 CCI        18.2726    3.0221    6.4243 C.3         1 A02       0.1308
     30 CCB        17.5137    4.0865    5.7666 C.2         1 A02       0.2016
     31 OAK        16.2918    4.1319    5.8655 O.2         1 A02      -0.3945
     32 CBJ        18.9926    3.5577    7.7166 C.3         1 A02      -0.0122
     33 CAZ        20.4328    4.1174    7.5120 C.3         1 A02      -0.0440
     34 CAS        21.5248    3.0282    7.2971 C.3         1 A02      -0.0124
     35 CAR        21.9724    2.3133    8.6022 C.3         1 A02      -0.0354
     36 NAC        22.5274    0.9824    8.3284 N.4         1 A02       0.2185
     37 CCA        17.5917   11.6067    4.9281 C.2         1 A02       0.1782
     38 OAJ        18.0110   11.9152    6.0354 O.2         1 A02      -0.3969
     39 CBH        18.5430   11.2522    3.8863 C.3         1 A02       0.0374
     40 CAY        19.1614    9.8389    4.0755 C.3         1 A02      -0.0360
     41 CAT        18.1325    8.6782    3.9570 C.3         1 A02      -0.0492
     42 CAV        18.7001    7.3156    4.4327 C.3         1 A02      -0.0326
     43 CBC        17.6049    6.2312    4.5786 C.3         1 A02       0.0310
     44 NBQ        18.1754    5.0505    5.1426 N.am        1 A02      -0.2851
     45 NBT        16.2915   11.5224    4.6806 N.am        1 A02      -0.2656
     46 CCJ        15.1989   11.7966    5.5734 C.3         1 A02       0.1310
     47 CBK        14.3034   10.5235    5.7242 C.3         1 A02      -0.0092
     48 CBB        14.9204    9.4184    6.6320 C.3         1 A02      -0.0156
     49 CBF        14.4362    9.4636    8.1153 C.3         1 A02       0.0627
     50 NBP        15.3640    8.9849    9.0393 N.pl3       1 A02      -0.2723
     51 CBX        15.8558    7.8021    9.1481 C.cat       1 A02       0.2882
     52 NAB        16.7044    7.6108   10.0811 N.pl3       1 A02      -0.2849
     53 NAE        15.5631    6.8069    8.3976 N.pl3       1 A02      -0.2849
     54 CCD        14.4852   12.9268    5.0047 C.2         1 A02       0.2039
     55 OAM        13.8651   12.7796    3.9581 O.2         1 A02      -0.3944
     56 N          14.6204   14.1287    5.5464 N.am        1 A02      -0.2637
     57 CA         14.0960   15.3573    5.0146 C.3         1 A02       0.1307
     58 CB         14.8579   16.5466    5.6600 C.3         1 A02      -0.0092
     59 CG         16.3922   16.5511    5.3845 C.3         1 A02      -0.0156
     60 CD         17.0980   17.7637    6.0363 C.3         1 A02       0.0627
     61 NE         17.0389   17.6850    7.4317 N.pl3       1 A02      -0.2723
     62 CZ         17.1430   18.6480    8.2737 C.cat       1 A02       0.2882
     63 NH1        17.3315   19.8710    7.9592 N.pl3       1 A02      -0.2849
     64 NH2        17.0358   18.3776    9.5174 N.pl3       1 A02      -0.2849
     65 C          12.6538   15.4997    5.2093 C.2         1 A02       0.1992
     66 O          12.0382   16.3195    4.5445 O.2         1 A02      -0.3947
     67 NAF        11.9703   14.8309    6.1152 N.am        1 A02      -0.2990
     68 H1          6.4833    5.4832   16.0995 H           1 A02       0.0996
     69 H2         10.8943    3.3972   18.0892 H           1 A02       0.1820
     70 H3          9.3907    3.2515   18.8210 H           1 A02       0.1820
     71 H4         12.5728    5.2957   14.0817 H           1 A02       0.1349
     72 H5         10.6160    9.4703   10.7224 H           1 A02       0.2102
     73 H6          9.8805    9.0831   12.8341 H           1 A02       0.2101
     74 H7         12.4023    8.1932   10.8685 H           1 A02       0.0673
     75 H8         12.2417    7.5429   13.1396 H           1 A02       0.0678
     76 H9         10.7915    6.1983    9.8049 H           1 A02       0.0869
     77 H10         9.2926    6.8770   12.8056 H           1 A02       0.0998
     78 H11        16.3782   -0.4023    7.3839 H           1 A02       0.0502
     79 H12        15.6129   -0.6370    5.8263 H           1 A02       0.0502
     80 H13        13.8840   -0.1210    7.4348 H           1 A02       0.0290
     81 H14        14.0044    1.2171    6.2901 H           1 A02       0.0290
     82 H15        15.3744    2.4781    8.0250 H           1 A02       0.0267
     83 H16        15.1110    1.1477    9.1584 H           1 A02       0.0267
     84 H17        12.6963    1.6565    9.2004 H           1 A02       0.0285
     85 H18        12.8856    2.8302    7.8816 H           1 A02       0.0285
     86 H19        14.4925    4.1345    9.4159 H           1 A02       0.0520
     87 H20        13.9728    3.0738   10.7433 H           1 A02       0.0520
     88 H21        11.7011    4.0954    9.5676 H           1 A02       0.1851
     89 H22        17.3970    1.6936    7.7317 H           1 A02       0.1883
     90 H23        19.0169    2.6598    5.7117 H           1 A02       0.0800
     91 H24        19.0531    2.7628    8.4621 H           1 A02       0.0312
     92 H25        18.3822    4.3412    8.1792 H           1 A02       0.0312
     93 H26        20.7080    4.7114    8.3883 H           1 A02       0.0269
     94 H27        20.4365    4.7986    6.6596 H           1 A02       0.0269
     95 H28        22.4028    3.5000    6.8473 H           1 A02       0.0317
     96 H29        21.1614    2.2917    6.5795 H           1 A02       0.0317
     97 H30        21.1390    2.1746    9.2904 H           1 A02       0.0813
     98 H31        22.7305    2.9137    9.1111 H           1 A02       0.0813
     99 H32        22.8305    0.5506    9.2043 H           1 A02       0.1994
    100 H33        23.3177    1.0647    7.6867 H           1 A02       0.1994
    101 H34        21.8060    0.3988    7.8995 H           1 A02       0.1994
    102 H35        19.3487   11.9910    3.8827 H           1 A02       0.0502
    103 H36        18.0675   11.3018    2.9026 H           1 A02       0.0502
    104 H37        19.6589    9.8022    5.0504 H           1 A02       0.0290
    105 H38        19.9304    9.6937    3.3116 H           1 A02       0.0290
    106 H39        17.8027    8.5884    2.9173 H           1 A02       0.0267
    107 H40        17.2601    8.9180    4.5629 H           1 A02       0.0267
    108 H41        19.1748    7.4494    5.4095 H           1 A02       0.0285
    109 H42        19.4634    6.9786    3.7248 H           1 A02       0.0285
    110 H43        17.1715    5.9917    3.6044 H           1 A02       0.0520
    111 H44        16.8148    6.6111    5.2348 H           1 A02       0.0520
    112 H45        19.1430    4.9786    5.1190 H           1 A02       0.1851
    113 H46        16.0453   11.2537    3.7822 H           1 A02       0.1883
    114 H47        15.5583   12.0660    6.5719 H           1 A02       0.0800
    115 H48        14.1276   10.1013    4.7297 H           1 A02       0.0313
    116 H49        13.3243   10.8091    6.1216 H           1 A02       0.0313
    117 H50        16.0086    9.4921    6.6086 H           1 A02       0.0301
    118 H51        14.6553    8.4422    6.2188 H           1 A02       0.0301
    119 H52        13.4979    8.9101    8.2149 H           1 A02       0.0689
    120 H53        14.2355   10.4997    8.3989 H           1 A02       0.0689
    121 H54        15.6741    9.6077    9.6674 H           1 A02       0.2642
    122 H55        17.0918    6.7695   10.2032 H           1 A02       0.2615
    123 H56        16.9348    8.3151   10.6518 H           1 A02       0.2615
    124 H57        14.9415    6.8990    7.7084 H           1 A02       0.2615
    125 H58        15.9685    5.9783    8.5454 H           1 A02       0.2615
    126 H59        15.1671   14.1957    6.3463 H           1 A02       0.1883
    127 H60        14.3008   15.3755    3.9368 H           1 A02       0.0800
    128 H61        14.6914   16.5222    6.7388 H           1 A02       0.0313
    129 H62        14.4426   17.4836    5.2804 H           1 A02       0.0313
    130 H63        16.5571   16.5909    4.3036 H           1 A02       0.0301
    131 H64        16.8479   15.6297    5.7592 H           1 A02       0.0301
    132 H65        16.6200   18.6738    5.6619 H           1 A02       0.0689
    133 H66        18.1478   17.7788    5.7304 H           1 A02       0.0689
    134 H67        16.8740   16.8392    7.7936 H           1 A02       0.2642
    135 H68        17.3521   20.5157    8.6339 H           1 A02       0.2615
    136 H69        17.4105   20.1287    7.0645 H           1 A02       0.2615
    137 H70        16.8855   17.4988    9.8063 H           1 A02       0.2615
    138 H71        17.1083   19.0743   10.1391 H           1 A02       0.2615
    139 H72        11.0173   14.9820    6.2125 H           1 A02       0.1815
    140 H73        12.4162   14.1971    6.7006 H           1 A02       0.1815
@<TRIPOS>BOND
     1     2     1  ar
     2     6     1  ar
     3     3     2  ar
     4     4     3  ar
     5     4     5  ar
     6    10     4   1
     7     5     6  ar
     8     8     5   1
     9     6     7   1
    10     9     8   2
    11    10     9   1
    12    19    10   1
    13    15    11   2
    14    16    12   1
    15    17    13   1
    16    18    14   1
    17    14    19   1
    18    15    18   1
    19    27    15  am
    20    16    17   1
    21    18    16   1
    22    17    19   1
    23    20    21   2
    24    20    22   1
    25    28    20  am
    26    22    23   1
    27    23    24   1
    28    24    25   1
    29    25    26   1
    30    26    27   1
    31    29    28   1
    32    30    29   1
    33    29    32   1
    34    30    31   2
    35    44    30  am
    36    32    33   1
    37    33    34   1
    38    34    35   1
    39    35    36   1
    40    37    38   2
    41    39    37   1
    42    37    45  am
    43    40    39   1
    44    41    40   1
    45    42    41   1
    46    43    42   1
    47    43    44   1
    48    45    46   1
    49    46    47   1
    50    46    54   1
    51    47    48   1
    52    48    49   1
    53    49    50   1
    54    50    51  ar
    55    51    52  ar
    56    51    53  ar
    57    54    55   2
    58    54    56  am
    59    56    57   1
    60    57    58   1
    61    57    65   1
    62    58    59   1
    63    59    60   1
    64    60    61   1
    65    61    62  ar
    66    62    63  ar
    67    62    64  ar
    68    65    66   2
    69    65    67  am
    70     2    68   1
    71     7    69   1
    72     7    70   1
    73     9    71   1
    74    12    72   1
    75    13    73   1
    76    16    74   1
    77    17    75   1
    78    18    76   1
    79    19    77   1
    80    22    78   1
    81    22    79   1
    82    23    80   1
    83    23    81   1
    84    24    82   1
    85    24    83   1
    86    25    84   1
    87    25    85   1
    88    26    86   1
    89    26    87   1
    90    27    88   1
    91    28    89   1
    92    29    90   1
    93    32    91   1
    94    32    92   1
    95    33    93   1
    96    33    94   1
    97    34    95   1
    98    34    96   1
    99    35    97   1
   100    35    98   1
   101    36    99   1
   102    36   100   1
   103    36   101   1
   104    39   102   1
   105    39   103   1
   106    40   104   1
   107    40   105   1
   108    41   106   1
   109    41   107   1
   110    42   108   1
   111    42   109   1
   112    43   110   1
   113    43   111   1
   114    44   112   1
   115    45   113   1
   116    46   114   1
   117    47   115   1
   118    47   116   1
   119    48   117   1
   120    48   118   1
   121    49   119   1
   122    49   120   1
   123    50   121   1
   124    52   122   1
   125    52   123   1
   126    53   124   1
   127    53   125   1
   128    56   126   1
   129    57   127   1
   130    58   128   1
   131    58   129   1
   132    59   130   1
   133    59   131   1
   134    60   132   1
   135    60   133   1
   136    61   134   1
   137    63   135   1
   138    63   136   1
   139    64   137   1
   140    64   138   1
   141    67   139   1
   142    67   140   1
@<TRIPOS>SUBSTRUCTURE
     1  A02      2

