@<TRIPOS>MOLECULE
3ag9_ligand_076
   140   142
SMALL
GAST_HUCK
****
This file was generated by PARSER (from files_GN.cpp)

@<TRIPOS>ATOM
      1 N1         14.9304   -0.4966    8.3260 N.ar        1 A02      -0.2698
      2 C2         13.5695   -0.5867    8.3370 C.ar        1 A02       0.0533
      3 N3         12.8121    0.4916    7.9982 N.ar        1 A02      -0.2714
      4 C4         13.4152    1.6530    7.6430 C.ar        1 A02       0.1613
      5 C5         14.8047    1.7661    7.6178 C.ar        1 A02       0.1045
      6 C6         15.5780    0.6475    7.9769 C.ar        1 A02       0.1298
      7 N6         16.9198    0.6934    7.9873 N.pl3       1 A02      -0.3152
      8 N7         15.1265    3.0086    7.2366 N.2         1 A02      -0.2958
      9 C8         13.9613    3.6522    7.0334 C.2         1 A02       0.1123
     10 N9         12.9041    2.8425    7.2774 N.pl3       1 A02      -0.1918
     11 OAL         9.5956    7.2088    6.2666 O.2         1 A02      -0.3941
     12 OAN         9.6475    5.4491    9.4350 O.3         1 A02      -0.3840
     13 OAO         9.7191    2.7677    8.8583 O.3         1 A02      -0.3834
     14 OBV        11.2764    4.3273    6.4023 O.3         1 A02      -0.3181
     15 CCC        10.5834    6.5844    6.6349 C.2         1 A02       0.2080
     16 CCK        10.7079    5.0047    8.5908 C.3         1 A02       0.1295
     17 CCL        10.9371    3.4861    8.6442 C.3         1 A02       0.1408
     18 CCM        10.4012    5.2200    7.0979 C.3         1 A02       0.1788
     19 CCN        11.5071    3.1745    7.2334 C.3         1 A02       0.2035
     20 CBZ        17.4623    8.8658    5.4485 C.2         1 A02       0.1782
     21 OAI        18.1023    9.5579    6.2311 O.2         1 A02      -0.3969
     22 CBG        16.6102    9.5404    4.4829 C.3         1 A02       0.0374
     23 CAX        15.0937    9.5097    4.8282 C.3         1 A02      -0.0360
     24 CAU        14.3921    8.1327    4.6331 C.3         1 A02      -0.0492
     25 CAW        12.8382    8.2284    4.6093 C.3         1 A02      -0.0326
     26 CBD        12.1484    8.3840    5.9966 C.3         1 A02       0.0310
     27 NBR        11.8035    7.1054    6.5479 N.am        1 A02      -0.2847
     28 NBS        17.5858    7.5410    5.4143 N.am        1 A02      -0.2656
     29 CCI        18.4733    6.6737    6.1482 C.3         1 A02       0.1308
     30 CCB        19.8931    6.9255    5.8569 C.2         1 A02       0.2016
     31 OAK        20.4967    6.0999    5.1755 O.2         1 A02      -0.3945
     32 CBJ        18.1206    6.4084    7.6560 C.3         1 A02      -0.0122
     33 CAZ        17.9612    7.5919    8.6597 C.3         1 A02      -0.0440
     34 CAS        16.5390    8.2324    8.7491 C.3         1 A02      -0.0124
     35 CAR        15.4192    7.3551    9.3770 C.3         1 A02      -0.0354
     36 NAC        15.6744    7.0524   10.7909 N.4         1 A02       0.2185
     37 CCA        20.3512   13.2255    2.6040 C.2         1 A02       0.1782
     38 OAJ        20.4852   13.2564    1.3851 O.2         1 A02      -0.3969
     39 CBH        20.6185   11.9892    3.3263 C.3         1 A02       0.0374
     40 CAY        21.6714   12.1077    4.4697 C.3         1 A02      -0.0360
     41 CAT        21.6217   10.9401    5.4972 C.3         1 A02      -0.0492
     42 CAV        21.9828    9.5389    4.9317 C.3         1 A02      -0.0326
     43 CBC        21.8842    8.4000    5.9835 C.3         1 A02       0.0310
     44 NBQ        20.5244    8.0244    6.2642 N.am        1 A02      -0.2851
     45 NBT        19.8802   14.2744    3.2661 N.am        1 A02      -0.2656
     46 CCJ        19.3128   15.4880    2.7379 C.3         1 A02       0.1310
     47 CBK        20.3768   16.6316    2.8447 C.3         1 A02      -0.0092
     48 CBB        21.4703   16.5773    1.7382 C.3         1 A02      -0.0156
     49 CBF        22.4313   17.7967    1.7244 C.3         1 A02       0.0627
     50 NBP        21.7444   19.0141    1.6026 N.pl3       1 A02      -0.2723
     51 CBX        21.7324   19.8556    0.6392 C.cat       1 A02       0.2882
     52 NAB        22.3517   19.7278   -0.4739 N.pl3       1 A02      -0.2849
     53 NAE        21.0449   20.9216    0.8133 N.pl3       1 A02      -0.2849
     54 CCD        18.0752   15.8002    3.4574 C.2         1 A02       0.2039
     55 OAM        17.6726   15.0803    4.3659 O.2         1 A02      -0.3944
     56 N          17.3896   16.8950    3.1319 N.am        1 A02      -0.2637
     57 CA         16.2648   17.4827    3.8046 C.3         1 A02       0.1307
     58 CB         16.4219   17.6306    5.3562 C.3         1 A02      -0.0092
     59 CG         17.8018   18.2044    5.8228 C.3         1 A02      -0.0156
     60 CD         18.5493   17.3121    6.8580 C.3         1 A02       0.0627
     61 NE         17.9462   17.3350    8.1209 N.pl3       1 A02      -0.2723
     62 CZ         18.0540   18.2579    9.0102 C.cat       1 A02       0.2882
     63 NH1        18.7500   19.3219    8.8816 N.pl3       1 A02      -0.2849
     64 NH2        17.4285   18.1186   10.1177 N.pl3       1 A02      -0.2849
     65 C          15.0312   16.8013    3.4295 C.2         1 A02       0.1992
     66 O          14.8146   15.6499    3.7710 O.2         1 A02      -0.3947
     67 NAF        14.1144   17.3928    2.6848 N.am        1 A02      -0.2990
     68 H1         13.1200   -1.4628    8.6018 H           1 A02       0.0996
     69 H2         17.3828    1.5074    7.7373 H           1 A02       0.1820
     70 H3         17.4274   -0.0899    8.2500 H           1 A02       0.1820
     71 H4         13.9011    4.6327    6.7462 H           1 A02       0.1349
     72 H5          9.9371    5.2350   10.3475 H           1 A02       0.2102
     73 H6          9.4009    3.0561    9.7394 H           1 A02       0.2101
     74 H7         11.6296    5.5215    8.8787 H           1 A02       0.0673
     75 H8         11.6341    3.2274    9.4472 H           1 A02       0.0678
     76 H9          9.3733    4.8947    6.9011 H           1 A02       0.0869
     77 H10        10.9655    2.3399    6.7737 H           1 A02       0.0998
     78 H11        16.7708    9.1110    3.4888 H           1 A02       0.0502
     79 H12        16.9063   10.5943    4.4206 H           1 A02       0.0502
     80 H13        14.6030   10.2392    4.1728 H           1 A02       0.0290
     81 H14        14.9541    9.8487    5.8604 H           1 A02       0.0290
     82 H15        14.7006    7.4394    5.4189 H           1 A02       0.0267
     83 H16        14.7108    7.7163    3.6736 H           1 A02       0.0267
     84 H17        12.4414    7.3337    4.1170 H           1 A02       0.0285
     85 H18        12.5482    9.0743    3.9767 H           1 A02       0.0285
     86 H19        11.2626    9.0186    5.8763 H           1 A02       0.0520
     87 H20        12.8053    8.8947    6.7035 H           1 A02       0.0520
     88 H21        12.5429    6.5405    6.8170 H           1 A02       0.1851
     89 H22        17.0312    7.0919    4.7494 H           1 A02       0.1883
     90 H23        18.2487    5.7023    5.6889 H           1 A02       0.0800
     91 H24        18.8983    5.7516    8.0570 H           1 A02       0.0312
     92 H25        17.2008    5.8207    7.6855 H           1 A02       0.0312
     93 H26        18.6871    8.3656    8.4096 H           1 A02       0.0269
     94 H27        18.2264    7.2385    9.6614 H           1 A02       0.0269
     95 H28        16.2132    8.5289    7.7479 H           1 A02       0.0317
     96 H29        16.6154    9.1446    9.3500 H           1 A02       0.0317
     97 H30        15.2982    6.4198    8.8243 H           1 A02       0.0813
     98 H31        14.4743    7.9033    9.3235 H           1 A02       0.0813
     99 H32        14.8734    6.5492   11.1830 H           1 A02       0.1994
    100 H33        15.8149    7.9259   11.3055 H           1 A02       0.1994
    101 H34        16.5117    6.4710   10.8687 H           1 A02       0.1994
    102 H35        20.9560   11.2174    2.6251 H           1 A02       0.0502
    103 H36        19.6665   11.6501    3.7478 H           1 A02       0.0502
    104 H37        21.4939   13.0302    5.0295 H           1 A02       0.0290
    105 H38        22.6747   12.1757    4.0351 H           1 A02       0.0290
    106 H39        20.6277   10.9121    5.9483 H           1 A02       0.0267
    107 H40        22.3357   11.1713    6.2948 H           1 A02       0.0267
    108 H41        23.0127    9.5809    4.5628 H           1 A02       0.0285
    109 H42        21.3354    9.2933    4.0883 H           1 A02       0.0285
    110 H43        22.3403    8.7318    6.9198 H           1 A02       0.0520
    111 H44        22.4736    7.5513    5.6207 H           1 A02       0.0520
    112 H45        20.0085    8.6599    6.7824 H           1 A02       0.1851
    113 H46        19.8450   14.1880    4.2360 H           1 A02       0.1883
    114 H47        19.0376   15.3623    1.6871 H           1 A02       0.0800
    115 H48        20.8556   16.5991    3.8303 H           1 A02       0.0313
    116 H49        19.8812   17.6000    2.7571 H           1 A02       0.0313
    117 H50        20.9890   16.5160    0.7569 H           1 A02       0.0301
    118 H51        22.0708   15.6732    1.8725 H           1 A02       0.0301
    119 H52        23.1663   17.6514    0.9281 H           1 A02       0.0689
    120 H53        22.9827   17.8280    2.6655 H           1 A02       0.0689
    121 H54        21.2346   19.2528    2.3515 H           1 A02       0.2642
    122 H55        22.2954   20.4003   -1.1223 H           1 A02       0.2615
    123 H56        22.8670   18.9681   -0.6459 H           1 A02       0.2615
    124 H57        20.5826   21.0446    1.6168 H           1 A02       0.2615
    125 H58        21.0216   21.5912    0.1597 H           1 A02       0.2615
    126 H59        17.7429   17.4092    2.3872 H           1 A02       0.1883
    127 H60        16.2176   18.5039    3.4177 H           1 A02       0.0800
    128 H61        16.2378   16.6657    5.8369 H           1 A02       0.0313
    129 H62        15.6315   18.3007    5.7163 H           1 A02       0.0313
    130 H63        17.6478   19.1976    6.2565 H           1 A02       0.0301
    131 H64        18.4659   18.3446    4.9658 H           1 A02       0.0301
    132 H65        19.6035   17.6089    6.9195 H           1 A02       0.0689
    133 H66        18.5393   16.2758    6.5066 H           1 A02       0.0689
    134 H67        17.4129   16.6013    8.3495 H           1 A02       0.2642
    135 H68        18.7696   19.9406    9.5792 H           1 A02       0.2615
    136 H69        19.2321   19.4870    8.1005 H           1 A02       0.2615
    137 H70        16.9006   17.3609   10.2695 H           1 A02       0.2615
    138 H71        17.5053   18.7899   10.7670 H           1 A02       0.2615
    139 H72        13.3105   16.9095    2.4390 H           1 A02       0.1815
    140 H73        14.2452   18.3059    2.3814 H           1 A02       0.1815
@<TRIPOS>BOND
     1     2     1  ar
     2     6     1  ar
     3     3     2  ar
     4     4     3  ar
     5     4     5  ar
     6    10     4   1
     7     5     6  ar
     8     8     5   1
     9     6     7   1
    10     9     8   2
    11    10     9   1
    12    19    10   1
    13    15    11   2
    14    16    12   1
    15    17    13   1
    16    18    14   1
    17    14    19   1
    18    15    18   1
    19    27    15  am
    20    16    17   1
    21    18    16   1
    22    17    19   1
    23    20    21   2
    24    20    22   1
    25    28    20  am
    26    22    23   1
    27    23    24   1
    28    24    25   1
    29    25    26   1
    30    26    27   1
    31    29    28   1
    32    30    29   1
    33    29    32   1
    34    30    31   2
    35    44    30  am
    36    32    33   1
    37    33    34   1
    38    34    35   1
    39    35    36   1
    40    37    38   2
    41    39    37   1
    42    37    45  am
    43    40    39   1
    44    41    40   1
    45    42    41   1
    46    43    42   1
    47    43    44   1
    48    45    46   1
    49    46    47   1
    50    46    54   1
    51    47    48   1
    52    48    49   1
    53    49    50   1
    54    50    51  ar
    55    51    52  ar
    56    51    53  ar
    57    54    55   2
    58    54    56  am
    59    56    57   1
    60    57    58   1
    61    57    65   1
    62    58    59   1
    63    59    60   1
    64    60    61   1
    65    61    62  ar
    66    62    63  ar
    67    62    64  ar
    68    65    66   2
    69    65    67  am
    70     2    68   1
    71     7    69   1
    72     7    70   1
    73     9    71   1
    74    12    72   1
    75    13    73   1
    76    16    74   1
    77    17    75   1
    78    18    76   1
    79    19    77   1
    80    22    78   1
    81    22    79   1
    82    23    80   1
    83    23    81   1
    84    24    82   1
    85    24    83   1
    86    25    84   1
    87    25    85   1
    88    26    86   1
    89    26    87   1
    90    27    88   1
    91    28    89   1
    92    29    90   1
    93    32    91   1
    94    32    92   1
    95    33    93   1
    96    33    94   1
    97    34    95   1
    98    34    96   1
    99    35    97   1
   100    35    98   1
   101    36    99   1
   102    36   100   1
   103    36   101   1
   104    39   102   1
   105    39   103   1
   106    40   104   1
   107    40   105   1
   108    41   106   1
   109    41   107   1
   110    42   108   1
   111    42   109   1
   112    43   110   1
   113    43   111   1
   114    44   112   1
   115    45   113   1
   116    46   114   1
   117    47   115   1
   118    47   116   1
   119    48   117   1
   120    48   118   1
   121    49   119   1
   122    49   120   1
   123    50   121   1
   124    52   122   1
   125    52   123   1
   126    53   124   1
   127    53   125   1
   128    56   126   1
   129    57   127   1
   130    58   128   1
   131    58   129   1
   132    59   130   1
   133    59   131   1
   134    60   132   1
   135    60   133   1
   136    61   134   1
   137    63   135   1
   138    63   136   1
   139    64   137   1
   140    64   138   1
   141    67   139   1
   142    67   140   1
@<TRIPOS>SUBSTRUCTURE
     1  A02      2

