@<TRIPOS>MOLECULE
3ag9_ligand_093
   140   142
SMALL
GAST_HUCK
****
This file was generated by PARSER (from files_GN.cpp)

@<TRIPOS>ATOM
      1 N1         14.5710    1.8471   13.8455 N.ar        1 A02      -0.2698
      2 C2         13.3380    2.1641   13.3575 C.ar        1 A02       0.0533
      3 N3         12.3156    2.4437   14.2122 N.ar        1 A02      -0.2714
      4 C4         12.5187    2.3909   15.5547 C.ar        1 A02       0.1613
      5 C5         13.7708    2.0528   16.0677 C.ar        1 A02       0.1045
      6 C6         14.8209    1.7716   15.1813 C.ar        1 A02       0.1298
      7 N6         16.0433    1.4450   15.6328 N.pl3       1 A02      -0.3152
      8 N7         13.7086    2.0685   17.4047 N.2         1 A02      -0.2958
      9 C8         12.4444    2.4101   17.7132 C.2         1 A02       0.1123
     10 N9         11.7061    2.6189   16.6033 N.pl3       1 A02      -0.1918
     11 OAL        11.1634    5.2472   14.3947 O.2         1 A02      -0.3941
     12 OAN         7.5934    4.3183   17.0433 O.3         1 A02      -0.3840
     13 OAO         9.7896    4.1618   18.7478 O.3         1 A02      -0.3834
     14 OBV         9.7784    3.1339   15.2697 O.3         1 A02      -0.3181
     15 CCC         9.9421    5.3666   14.4001 C.2         1 A02       0.2080
     16 CCK         8.8232    4.8802   16.5786 C.3         1 A02       0.1295
     17 CCL        10.0267    4.3134   17.3478 C.3         1 A02       0.1408
     18 CCM         9.1279    4.4101   15.1375 C.3         1 A02       0.1788
     19 CCN        10.3153    2.9891   16.6003 C.3         1 A02       0.2035
     20 CBZ         9.7762    4.1846    8.6754 C.2         1 A02       0.1782
     21 OAI         9.6857    5.1651    7.9369 O.2         1 A02      -0.3969
     22 CBG         9.0772    4.2194    9.9503 C.3         1 A02       0.0374
     23 CAX        10.0498    4.4403   11.1445 C.3         1 A02      -0.0360
     24 CAU        10.8655    5.7708   11.1185 C.3         1 A02      -0.0492
     25 CAW        10.0677    7.0621   11.4769 C.3         1 A02      -0.0326
     26 CBD         9.9901    7.3860   12.9921 C.3         1 A02       0.0310
     27 NBR         9.3436    6.3568   13.7489 N.am        1 A02      -0.2847
     28 NBS        10.5768    3.1658    8.3729 N.am        1 A02      -0.2656
     29 CCI        11.4820    3.1131    7.2570 C.3         1 A02       0.1308
     30 CCB        12.4838    4.1707    7.3190 C.2         1 A02       0.2016
     31 OAK        12.9776    4.4656    8.4026 O.2         1 A02      -0.3945
     32 CBJ        12.1373    1.7103    7.0762 C.3         1 A02      -0.0122
     33 CAZ        13.0701    1.2303    8.2280 C.3         1 A02      -0.0440
     34 CAS        14.1437    0.1998    7.7788 C.3         1 A02      -0.0124
     35 CAR        15.0031    0.6754    6.5812 C.3         1 A02      -0.0354
     36 NAC        16.2419   -0.0959    6.4472 N.4         1 A02       0.2185
     37 CCA        19.3750    3.8867    4.0096 C.2         1 A02       0.1782
     38 OAJ        20.2345    3.0637    3.7313 O.2         1 A02      -0.3969
     39 CBH        17.9720    3.5138    3.9583 C.3         1 A02       0.0374
     40 CAY        17.1956    3.8066    5.2821 C.3         1 A02      -0.0360
     41 CAT        15.8168    4.4792    5.0541 C.3         1 A02      -0.0492
     42 CAV        15.3165    5.2459    6.3057 C.3         1 A02      -0.0326
     43 CBC        13.8756    5.8101    6.1414 C.3         1 A02       0.0310
     44 NBQ        12.8750    4.7982    6.2088 N.am        1 A02      -0.2851
     45 NBT        19.6877    5.1382    4.3325 N.am        1 A02      -0.2656
     46 CCJ        20.9866    5.7493    4.3742 C.3         1 A02       0.1310
     47 CBK        21.4886    6.0138    5.8429 C.3         1 A02      -0.0092
     48 CBB        20.4509    6.1117    7.0078 C.3         1 A02      -0.0156
     49 CBF        19.7532    7.4820    7.2184 C.3         1 A02       0.0627
     50 NBP        20.6103    8.4403    7.7773 N.pl3       1 A02      -0.2723
     51 CBX        21.4206    9.2275    7.1753 C.cat       1 A02       0.2882
     52 NAB        21.5928    9.3191    5.9126 N.pl3       1 A02      -0.2849
     53 NAE        22.1280    9.9995    7.8995 N.pl3       1 A02      -0.2849
     54 CCD        20.9160    6.9360    3.5251 C.2         1 A02       0.2039
     55 OAM        20.3011    7.9173    3.9330 O.2         1 A02      -0.3944
     56 N          21.4054    6.8802    2.2895 N.am        1 A02      -0.2637
     57 CA         21.4018    7.8711    1.2427 C.3         1 A02       0.1307
     58 CB         22.8379    8.4514    1.0712 C.3         1 A02      -0.0092
     59 CG         23.3318    9.4504    2.1552 C.3         1 A02      -0.0156
     60 CD         24.8716    9.6726    2.1070 C.3         1 A02       0.0627
     61 NE         25.2252   10.9436    2.5775 N.pl3       1 A02      -0.2723
     62 CZ         25.6258   11.9548    1.8925 C.cat       1 A02       0.2882
     63 NH1        25.7738   11.9814    0.6189 N.pl3       1 A02      -0.2849
     64 NH2        25.8901   13.0350    2.5264 N.pl3       1 A02      -0.2849
     65 C          20.2903    8.8211    1.2470 C.2         1 A02       0.1992
     66 O          20.4493   10.0324    1.2654 O.2         1 A02      -0.3947
     67 NAF        19.0457    8.3904    1.2379 N.am        1 A02      -0.2990
     68 H1         13.1831    2.2007   12.3495 H           1 A02       0.0996
     69 H2         16.2057    1.3920   16.5888 H           1 A02       0.1820
     70 H3         16.7596    1.2530   15.0079 H           1 A02       0.1820
     71 H4         12.1019    2.4947   18.6710 H           1 A02       0.1349
     72 H5          6.9121    4.6481   16.4182 H           1 A02       0.2102
     73 H6          9.2727    3.3370   18.8633 H           1 A02       0.2101
     74 H7          8.7667    5.9715   16.6730 H           1 A02       0.0673
     75 H8         10.8750    4.9958   17.2294 H           1 A02       0.0678
     76 H9          8.1942    4.2340   14.5904 H           1 A02       0.0869
     77 H10         9.7546    2.1849   17.0819 H           1 A02       0.0998
     78 H11         8.5499    3.2664   10.0894 H           1 A02       0.0502
     79 H12         8.3150    5.0083    9.9554 H           1 A02       0.0502
     80 H13        10.7609    3.6092   11.1678 H           1 A02       0.0290
     81 H14         9.4672    4.3821   12.0614 H           1 A02       0.0290
     82 H15        11.3001    5.9011   10.1241 H           1 A02       0.0267
     83 H16        11.7069    5.6741   11.8072 H           1 A02       0.0267
     84 H17         9.0556    7.0120   11.0627 H           1 A02       0.0285
     85 H18        10.5649    7.9137   10.9951 H           1 A02       0.0285
     86 H19         9.4031    8.3005   13.1242 H           1 A02       0.0520
     87 H20        10.9921    7.5969   13.3733 H           1 A02       0.0520
     88 H21         8.3689    6.3831   13.7677 H           1 A02       0.1851
     89 H22        10.5741    2.4091    8.9875 H           1 A02       0.1883
     90 H23        10.8696    3.2678    6.3650 H           1 A02       0.0800
     91 H24        12.7043    1.7282    6.1452 H           1 A02       0.0312
     92 H25        11.3383    0.9701    6.9577 H           1 A02       0.0312
     93 H26        12.4624    0.7680    9.0104 H           1 A02       0.0269
     94 H27        13.5995    2.0640    8.6896 H           1 A02       0.0269
     95 H28        13.6614   -0.7407    7.5209 H           1 A02       0.0317
     96 H29        14.8066    0.0052    8.6283 H           1 A02       0.0317
     97 H30        15.2818    1.7270    6.7087 H           1 A02       0.0813
     98 H31        14.4540    0.5716    5.6395 H           1 A02       0.0813
     99 H32        16.7631    0.2454    5.6361 H           1 A02       0.1994
    100 H33        16.0303   -1.0915    6.3168 H           1 A02       0.1994
    101 H34        16.8152    0.0250    7.2892 H           1 A02       0.1994
    102 H35        17.8674    2.4547    3.7181 H           1 A02       0.0502
    103 H36        17.5396    4.0662    3.1232 H           1 A02       0.0502
    104 H37        17.7820    4.4558    5.9389 H           1 A02       0.0290
    105 H38        17.0439    2.8672    5.8216 H           1 A02       0.0290
    106 H39        15.0832    3.7163    4.7700 H           1 A02       0.0267
    107 H40        15.8880    5.2032    4.2360 H           1 A02       0.0267
    108 H41        15.9864    6.0863    6.5014 H           1 A02       0.0285
    109 H42        15.3587    4.5871    7.1781 H           1 A02       0.0285
    110 H43        13.7973    6.3130    5.1742 H           1 A02       0.0520
    111 H44        13.6868    6.5670    6.9104 H           1 A02       0.0520
    112 H45        12.4243    4.5578    5.3801 H           1 A02       0.1851
    113 H46        18.9409    5.7183    4.5492 H           1 A02       0.1883
    114 H47        21.7219    5.0597    3.9292 H           1 A02       0.0800
    115 H48        22.1311    6.9016    5.8583 H           1 A02       0.0313
    116 H49        22.1290    5.1699    6.1083 H           1 A02       0.0313
    117 H50        20.9591    5.8585    7.9475 H           1 A02       0.0301
    118 H51        19.6791    5.3539    6.8582 H           1 A02       0.0301
    119 H52        18.9440    7.3501    7.9400 H           1 A02       0.0689
    120 H53        19.2835    7.8271    6.2951 H           1 A02       0.0689
    121 H54        20.6165    8.4859    8.7176 H           1 A02       0.2642
    122 H55        22.2018    9.9430    5.5723 H           1 A02       0.2615
    123 H56        21.1098    8.7965    5.3143 H           1 A02       0.2615
    124 H57        22.0370    9.9945    8.8253 H           1 A02       0.2615
    125 H58        22.7379   10.5801    7.4970 H           1 A02       0.2615
    126 H59        21.8377    6.0402    2.0412 H           1 A02       0.1883
    127 H60        21.2332    7.2835    0.3275 H           1 A02       0.0800
    128 H61        22.8951    8.9564    0.1027 H           1 A02       0.0313
    129 H62        23.5344    7.6075    1.0326 H           1 A02       0.0313
    130 H63        23.0587    9.0955    3.1553 H           1 A02       0.0301
    131 H64        22.8307   10.4090    1.9958 H           1 A02       0.0301
    132 H65        25.2431    9.4959    1.0943 H           1 A02       0.0689
    133 H66        25.3605    8.9341    2.7512 H           1 A02       0.0689
    134 H67        25.1458   11.0907    3.4985 H           1 A02       0.2642
    135 H68        26.0639   12.7666    0.2037 H           1 A02       0.2615
    136 H69        25.5894   11.2289    0.1017 H           1 A02       0.2615
    137 H70        25.7861   13.0628    3.4541 H           1 A02       0.2615
    138 H71        26.1783   13.7941    2.0663 H           1 A02       0.2615
    139 H72        18.3059    9.0245    1.2400 H           1 A02       0.1815
    140 H73        18.8515    7.4382    1.2315 H           1 A02       0.1815
@<TRIPOS>BOND
     1     2     1  ar
     2     6     1  ar
     3     3     2  ar
     4     4     3  ar
     5     4     5  ar
     6    10     4   1
     7     5     6  ar
     8     8     5   1
     9     6     7   1
    10     9     8   2
    11    10     9   1
    12    19    10   1
    13    15    11   2
    14    16    12   1
    15    17    13   1
    16    18    14   1
    17    14    19   1
    18    15    18   1
    19    27    15  am
    20    16    17   1
    21    18    16   1
    22    17    19   1
    23    20    21   2
    24    20    22   1
    25    28    20  am
    26    22    23   1
    27    23    24   1
    28    24    25   1
    29    25    26   1
    30    26    27   1
    31    29    28   1
    32    30    29   1
    33    29    32   1
    34    30    31   2
    35    44    30  am
    36    32    33   1
    37    33    34   1
    38    34    35   1
    39    35    36   1
    40    37    38   2
    41    39    37   1
    42    37    45  am
    43    40    39   1
    44    41    40   1
    45    42    41   1
    46    43    42   1
    47    43    44   1
    48    45    46   1
    49    46    47   1
    50    46    54   1
    51    47    48   1
    52    48    49   1
    53    49    50   1
    54    50    51  ar
    55    51    52  ar
    56    51    53  ar
    57    54    55   2
    58    54    56  am
    59    56    57   1
    60    57    58   1
    61    57    65   1
    62    58    59   1
    63    59    60   1
    64    60    61   1
    65    61    62  ar
    66    62    63  ar
    67    62    64  ar
    68    65    66   2
    69    65    67  am
    70     2    68   1
    71     7    69   1
    72     7    70   1
    73     9    71   1
    74    12    72   1
    75    13    73   1
    76    16    74   1
    77    17    75   1
    78    18    76   1
    79    19    77   1
    80    22    78   1
    81    22    79   1
    82    23    80   1
    83    23    81   1
    84    24    82   1
    85    24    83   1
    86    25    84   1
    87    25    85   1
    88    26    86   1
    89    26    87   1
    90    27    88   1
    91    28    89   1
    92    29    90   1
    93    32    91   1
    94    32    92   1
    95    33    93   1
    96    33    94   1
    97    34    95   1
    98    34    96   1
    99    35    97   1
   100    35    98   1
   101    36    99   1
   102    36   100   1
   103    36   101   1
   104    39   102   1
   105    39   103   1
   106    40   104   1
   107    40   105   1
   108    41   106   1
   109    41   107   1
   110    42   108   1
   111    42   109   1
   112    43   110   1
   113    43   111   1
   114    44   112   1
   115    45   113   1
   116    46   114   1
   117    47   115   1
   118    47   116   1
   119    48   117   1
   120    48   118   1
   121    49   119   1
   122    49   120   1
   123    50   121   1
   124    52   122   1
   125    52   123   1
   126    53   124   1
   127    53   125   1
   128    56   126   1
   129    57   127   1
   130    58   128   1
   131    58   129   1
   132    59   130   1
   133    59   131   1
   134    60   132   1
   135    60   133   1
   136    61   134   1
   137    63   135   1
   138    63   136   1
   139    64   137   1
   140    64   138   1
   141    67   139   1
   142    67   140   1
@<TRIPOS>SUBSTRUCTURE
     1  A02      2

