@<TRIPOS>MOLECULE
3ag9_ligand_043
   140   142
SMALL
GAST_HUCK
****
This file was generated by PARSER (from files_GN.cpp)

@<TRIPOS>ATOM
      1 N1         14.4208    1.8887   13.8033 N.ar        1 A02      -0.2698
      2 C2         13.1860    2.1736   13.3056 C.ar        1 A02       0.0533
      3 N3         12.1574    2.4424   14.1529 N.ar        1 A02      -0.2714
      4 C4         12.3539    2.4176   15.4975 C.ar        1 A02       0.1613
      5 C5         13.6061    2.1023   16.0180 C.ar        1 A02       0.1045
      6 C6         14.6706    1.8388   15.1393 C.ar        1 A02       0.1298
      7 N6         15.9007    1.5517   15.5961 N.pl3       1 A02      -0.3152
      8 N7         13.5369    2.1409   17.3532 N.2         1 A02      -0.2958
      9 C8         12.2665    2.4586   17.6521 C.2         1 A02       0.1123
     10 N9         11.5303    2.6512   16.5355 N.pl3       1 A02      -0.1918
     11 OAL        10.9424    4.9809   13.9723 O.2         1 A02      -0.3941
     12 OAN         7.4589    4.3626   16.9862 O.3         1 A02      -0.3840
     13 OAO         9.7001    4.3555   18.6259 O.3         1 A02      -0.3834
     14 OBV         9.5661    3.1222   15.2117 O.3         1 A02      -0.3181
     15 CCC         9.7955    5.3128   14.2528 C.2         1 A02       0.2080
     16 CCK         8.6585    4.9301   16.4525 C.3         1 A02       0.1295
     17 CCL         9.8855    4.4058   17.2100 C.3         1 A02       0.1408
     18 CCM         8.9477    4.4103   15.0277 C.3         1 A02       0.1788
     19 CCN        10.1422    3.0359   16.5330 C.3         1 A02       0.2035
     20 CBZ         9.7964    4.2067    8.5789 C.2         1 A02       0.1782
     21 OAI         9.7152    5.2045    7.8684 O.2         1 A02      -0.3969
     22 CBG         9.0317    4.1593    9.8135 C.3         1 A02       0.0374
     23 CAX         9.9065    4.4173   11.0756 C.3         1 A02      -0.0360
     24 CAU        10.6937    5.7684   11.0734 C.3         1 A02      -0.0492
     25 CAW         9.8973    7.0448   11.4976 C.3         1 A02      -0.0326
     26 CBD         9.9707    7.4214   13.0027 C.3         1 A02       0.0310
     27 NBR         9.3003    6.4690   13.8310 N.am        1 A02      -0.2847
     28 NBS        10.5961    3.1937    8.2698 N.am        1 A02      -0.2656
     29 CCI        11.5205    3.1520    7.1702 C.3         1 A02       0.1308
     30 CCB        12.6066    4.1201    7.3468 C.2         1 A02       0.2016
     31 OAK        12.9563    4.4175    8.4872 O.2         1 A02      -0.3945
     32 CBJ        12.0378    1.6977    6.9277 C.3         1 A02      -0.0122
     33 CAZ        12.7006    0.9675    8.1411 C.3         1 A02      -0.0440
     34 CAS        13.9133    0.0439    7.8187 C.3         1 A02      -0.0124
     35 CAR        14.8016    0.5193    6.6400 C.3         1 A02      -0.0354
     36 NAC        16.0401   -0.2604    6.5702 N.4         1 A02       0.2185
     37 CCA        18.7431    5.1192    2.5750 C.2         1 A02       0.1782
     38 OAJ        19.3145    4.6661    1.5861 O.2         1 A02      -0.3969
     39 CBH        18.0474    4.1405    3.4032 C.3         1 A02       0.0374
     40 CAY        17.5503    4.5343    4.8276 C.3         1 A02      -0.0360
     41 CAT        16.1251    5.1469    4.8667 C.3         1 A02      -0.0492
     42 CAV        15.6086    5.3621    6.3173 C.3         1 A02      -0.0326
     43 CBC        14.1181    5.8110    6.3895 C.3         1 A02       0.0310
     44 NBQ        13.1590    4.7425    6.3064 N.am        1 A02      -0.2851
     45 NBT        18.8369    6.4135    2.8735 N.am        1 A02      -0.2656
     46 CCJ        19.6332    7.4154    2.1954 C.3         1 A02       0.1310
     47 CBK        20.7247    7.9934    3.1543 C.3         1 A02      -0.0092
     48 CBB        21.3295    7.0084    4.2062 C.3         1 A02      -0.0156
     49 CBF        20.7970    7.2458    5.6475 C.3         1 A02       0.0627
     50 NBP        21.3444    8.4133    6.2032 N.pl3       1 A02      -0.2723
     51 CBX        21.2410    8.8218    7.4120 C.cat       1 A02       0.2882
     52 NAB        20.5664    8.2359    8.3259 N.pl3       1 A02      -0.2849
     53 NAE        21.8587    9.8935    7.7347 N.pl3       1 A02      -0.2849
     54 CCD        18.8121    8.5043    1.6580 C.2         1 A02       0.2039
     55 OAM        17.6117    8.5379    1.9038 O.2         1 A02      -0.3944
     56 N          19.4006    9.5097    1.0058 N.am        1 A02      -0.2637
     57 CA         18.8386   10.7425    0.5018 C.3         1 A02       0.1307
     58 CB         19.0481   11.9434    1.5005 C.3         1 A02      -0.0092
     59 CG         18.7638   11.7336    3.0191 C.3         1 A02      -0.0156
     60 CD         17.4238   12.2777    3.5983 C.3         1 A02       0.0627
     61 NE         17.6038   13.5288    4.2073 N.pl3       1 A02      -0.2723
     62 CZ         17.0386   13.9782    5.2674 C.cat       1 A02       0.2882
     63 NH1        16.1398   13.3802    5.9491 N.pl3       1 A02      -0.2849
     64 NH2        17.4207   15.1154    5.7113 N.pl3       1 A02      -0.2849
     65 C          17.5146   10.6209   -0.1146 C.2         1 A02       0.1992
     66 O          16.5631   11.3069    0.2235 O.2         1 A02      -0.3947
     67 NAF        17.3134    9.7642   -1.0964 N.am        1 A02      -0.2990
     68 H1         13.0345    2.2008   12.2985 H           1 A02       0.0996
     69 H2         16.0692    1.5241   16.5527 H           1 A02       0.1820
     70 H3         16.6290    1.3759   14.9744 H           1 A02       0.1820
     71 H4         11.9140    2.5519   18.6070 H           1 A02       0.1349
     72 H5          6.7784    4.4755   16.2897 H           1 A02       0.2102
     73 H6          9.4251    3.4395   18.8467 H           1 A02       0.2101
     74 H7          8.5881    6.0215   16.5098 H           1 A02       0.0673
     75 H8         10.7343    5.0708   17.0201 H           1 A02       0.0678
     76 H9          8.0121    4.2496   14.4852 H           1 A02       0.0869
     77 H10         9.5827    2.2675   17.0735 H           1 A02       0.0998
     78 H11         8.5668    3.1714    9.8981 H           1 A02       0.0502
     79 H12         8.2201    4.8949    9.7931 H           1 A02       0.0502
     80 H13        10.6331    3.6003   11.1757 H           1 A02       0.0290
     81 H14         9.2579    4.3766   11.9539 H           1 A02       0.0290
     82 H15        11.0916    5.9340   10.0665 H           1 A02       0.0267
     83 H16        11.5642    5.6653   11.7294 H           1 A02       0.0267
     84 H17         8.8482    6.9548   11.1987 H           1 A02       0.0285
     85 H18        10.3168    7.8943   10.9450 H           1 A02       0.0285
     86 H19         9.4734    8.3843   13.1425 H           1 A02       0.0520
     87 H20        11.0134    7.5615   13.3047 H           1 A02       0.0520
     88 H21         8.3884    6.6807   14.0823 H           1 A02       0.1851
     89 H22        10.5697    2.4166    8.8502 H           1 A02       0.1883
     90 H23        10.9583    3.4228    6.2713 H           1 A02       0.0800
     91 H24        12.7407    1.7322    6.0974 H           1 A02       0.0312
     92 H25        11.1911    1.0938    6.5882 H           1 A02       0.0312
     93 H26        11.9430    0.3552    8.6452 H           1 A02       0.0269
     94 H27        13.0571    1.6871    8.8778 H           1 A02       0.0269
     95 H28        13.5562   -0.9678    7.6139 H           1 A02       0.0317
     96 H29        14.5308   -0.0118    8.7217 H           1 A02       0.0317
     97 H30        15.0661    1.5715    6.7539 H           1 A02       0.0813
     98 H31        14.2709    0.3920    5.6945 H           1 A02       0.0813
     99 H32        16.5991    0.0629    5.7796 H           1 A02       0.1994
    100 H33        15.8188   -1.2505    6.4484 H           1 A02       0.1994
    101 H34        16.5723   -0.1375    7.4338 H           1 A02       0.1994
    102 H35        18.7347    3.2963    3.5329 H           1 A02       0.0502
    103 H36        17.1932    3.7674    2.8332 H           1 A02       0.0502
    104 H37        18.2662    5.2177    5.2898 H           1 A02       0.0290
    105 H38        17.5360    3.6242    5.4372 H           1 A02       0.0290
    106 H39        15.4333    4.4834    4.3438 H           1 A02       0.0267
    107 H40        16.1395    6.1088    4.3464 H           1 A02       0.0267
    108 H41        16.2262    6.1321    6.7867 H           1 A02       0.0285
    109 H42        15.7372    4.4437    6.8926 H           1 A02       0.0285
    110 H43        13.9116    6.5090    5.5757 H           1 A02       0.0520
    111 H44        13.9521    6.3585    7.3239 H           1 A02       0.0520
    112 H45        12.8183    4.5235    5.4225 H           1 A02       0.1851
    113 H46        18.3400    6.7171    3.6455 H           1 A02       0.1883
    114 H47        20.1592    6.9628    1.3474 H           1 A02       0.0800
    115 H48        20.3098    8.8626    3.6725 H           1 A02       0.0313
    116 H49        21.5481    8.3680    2.5378 H           1 A02       0.0313
    117 H50        22.4193    7.1064    4.2180 H           1 A02       0.0301
    118 H51        21.1184    5.9752    3.9246 H           1 A02       0.0301
    119 H52        21.0665    6.3912    6.2768 H           1 A02       0.0689
    120 H53        19.7051    7.3175    5.6173 H           1 A02       0.0689
    121 H54        21.8623    8.9436    5.6305 H           1 A02       0.2642
    122 H55        20.5416    8.5931    9.1912 H           1 A02       0.2615
    123 H56        20.0998    7.4481    8.1386 H           1 A02       0.2615
    124 H57        22.3682   10.3512    7.0964 H           1 A02       0.2615
    125 H58        21.8141   10.2147    8.6127 H           1 A02       0.2615
    126 H59        20.3623    9.4334    0.9020 H           1 A02       0.1883
    127 H60        19.4821   10.9872   -0.3542 H           1 A02       0.0800
    128 H61        18.4983   12.8201    1.1506 H           1 A02       0.0313
    129 H62        20.1077   12.2132    1.4350 H           1 A02       0.0313
    130 H63        19.5884   12.1934    3.5762 H           1 A02       0.0301
    131 H64        18.8354   10.6697    3.2374 H           1 A02       0.0301
    132 H65        17.0732   11.5563    4.3413 H           1 A02       0.0689
    133 H66        16.6650   12.3531    2.8199 H           1 A02       0.0689
    134 H67        18.2510   14.0874    3.8229 H           1 A02       0.2642
    135 H68        15.8000   13.7894    6.7216 H           1 A02       0.2615
    136 H69        15.8100   12.5453    5.6824 H           1 A02       0.2615
    137 H70        18.0843   15.5987    5.2648 H           1 A02       0.2615
    138 H71        17.0441   15.4560    6.5016 H           1 A02       0.2615
    139 H72        16.4419    9.6914   -1.5116 H           1 A02       0.1815
    140 H73        18.0412    9.2053   -1.4072 H           1 A02       0.1815
@<TRIPOS>BOND
     1     2     1  ar
     2     6     1  ar
     3     3     2  ar
     4     4     3  ar
     5     4     5  ar
     6    10     4   1
     7     5     6  ar
     8     8     5   1
     9     6     7   1
    10     9     8   2
    11    10     9   1
    12    19    10   1
    13    15    11   2
    14    16    12   1
    15    17    13   1
    16    18    14   1
    17    14    19   1
    18    15    18   1
    19    27    15  am
    20    16    17   1
    21    18    16   1
    22    17    19   1
    23    20    21   2
    24    20    22   1
    25    28    20  am
    26    22    23   1
    27    23    24   1
    28    24    25   1
    29    25    26   1
    30    26    27   1
    31    29    28   1
    32    30    29   1
    33    29    32   1
    34    30    31   2
    35    44    30  am
    36    32    33   1
    37    33    34   1
    38    34    35   1
    39    35    36   1
    40    37    38   2
    41    39    37   1
    42    37    45  am
    43    40    39   1
    44    41    40   1
    45    42    41   1
    46    43    42   1
    47    43    44   1
    48    45    46   1
    49    46    47   1
    50    46    54   1
    51    47    48   1
    52    48    49   1
    53    49    50   1
    54    50    51  ar
    55    51    52  ar
    56    51    53  ar
    57    54    55   2
    58    54    56  am
    59    56    57   1
    60    57    58   1
    61    57    65   1
    62    58    59   1
    63    59    60   1
    64    60    61   1
    65    61    62  ar
    66    62    63  ar
    67    62    64  ar
    68    65    66   2
    69    65    67  am
    70     2    68   1
    71     7    69   1
    72     7    70   1
    73     9    71   1
    74    12    72   1
    75    13    73   1
    76    16    74   1
    77    17    75   1
    78    18    76   1
    79    19    77   1
    80    22    78   1
    81    22    79   1
    82    23    80   1
    83    23    81   1
    84    24    82   1
    85    24    83   1
    86    25    84   1
    87    25    85   1
    88    26    86   1
    89    26    87   1
    90    27    88   1
    91    28    89   1
    92    29    90   1
    93    32    91   1
    94    32    92   1
    95    33    93   1
    96    33    94   1
    97    34    95   1
    98    34    96   1
    99    35    97   1
   100    35    98   1
   101    36    99   1
   102    36   100   1
   103    36   101   1
   104    39   102   1
   105    39   103   1
   106    40   104   1
   107    40   105   1
   108    41   106   1
   109    41   107   1
   110    42   108   1
   111    42   109   1
   112    43   110   1
   113    43   111   1
   114    44   112   1
   115    45   113   1
   116    46   114   1
   117    47   115   1
   118    47   116   1
   119    48   117   1
   120    48   118   1
   121    49   119   1
   122    49   120   1
   123    50   121   1
   124    52   122   1
   125    52   123   1
   126    53   124   1
   127    53   125   1
   128    56   126   1
   129    57   127   1
   130    58   128   1
   131    58   129   1
   132    59   130   1
   133    59   131   1
   134    60   132   1
   135    60   133   1
   136    61   134   1
   137    63   135   1
   138    63   136   1
   139    64   137   1
   140    64   138   1
   141    67   139   1
   142    67   140   1
@<TRIPOS>SUBSTRUCTURE
     1  A02      2

