@<TRIPOS>MOLECULE
3ag9_ligand_008
   140   142
SMALL
GAST_HUCK
****
This file was generated by PARSER (from files_GN.cpp)

@<TRIPOS>ATOM
      1 N1         10.9432    2.9365   15.3405 N.ar        1 A02      -0.2698
      2 C2         10.6274    3.5244   14.1528 C.ar        1 A02       0.0533
      3 N3          9.4621    4.2129   14.0193 N.ar        1 A02      -0.2714
      4 C4          8.5965    4.2954   15.0648 C.ar        1 A02       0.1613
      5 C5          8.8969    3.6835   16.2795 C.ar        1 A02       0.1045
      6 C6         10.1151    2.9990   16.4188 C.ar        1 A02       0.1298
      7 N6         10.4857    2.4304   17.5788 N.pl3       1 A02      -0.3152
      8 N7          7.8930    3.9054   17.1377 N.2         1 A02      -0.2958
      9 C8          6.9942    4.6527   16.4718 C.2         1 A02       0.1123
     10 N9          7.4095    4.9132   15.2118 N.pl3       1 A02      -0.1918
     11 OAL         8.7162    6.7601   10.9126 O.2         1 A02      -0.3941
     12 OAN         6.1404    9.2383   13.4466 O.3         1 A02      -0.3840
     13 OAO         5.2462    7.4883   15.2800 O.3         1 A02      -0.3834
     14 OBV         7.3713    5.8846   13.0257 O.3         1 A02      -0.3181
     15 CCC         7.9193    7.5633   11.3876 C.2         1 A02       0.2080
     16 CCK         6.9966    8.1153   13.6518 C.3         1 A02       0.1295
     17 CCL         6.5760    7.2241   14.8329 C.3         1 A02       0.1408
     18 CCM         7.0148    7.1488   12.4487 C.3         1 A02       0.1788
     19 CCN         6.7137    5.7750   14.2961 C.3         1 A02       0.2035
     20 CBZ         7.6164   13.1465    6.9545 C.2         1 A02       0.1782
     21 OAI         7.4441   13.1920    5.7466 O.2         1 A02      -0.3969
     22 CBG         7.6955   11.8379    7.5720 C.3         1 A02       0.0374
     23 CAX         9.1097   11.1995    7.4347 C.3         1 A02      -0.0360
     24 CAU         9.1383    9.6430    7.4209 C.3         1 A02      -0.0492
     25 CAW         8.3960    8.9033    8.5681 C.3         1 A02      -0.0326
     26 CBD         8.7273    9.4258    9.9864 C.3         1 A02       0.0310
     27 NBR         7.8834    8.8218   10.9681 N.am        1 A02      -0.2847
     28 NBS         7.9005   14.2461    7.6453 N.am        1 A02      -0.2656
     29 CCI         8.0550   15.5887    7.1287 C.3         1 A02       0.1308
     30 CCB         9.1447   15.7231    6.1493 C.2         1 A02       0.2016
     31 OAK         9.2907   16.8007    5.5831 O.2         1 A02      -0.3945
     32 CBJ         6.6919   16.2066    6.6708 C.3         1 A02      -0.0122
     33 CAZ         5.6718   16.4222    7.8273 C.3         1 A02      -0.0440
     34 CAS         5.8466   17.7594    8.5991 C.3         1 A02      -0.0124
     35 CAR         4.9487   18.9104    8.0736 C.3         1 A02      -0.0354
     36 NAC         5.2026   20.1649    8.7992 N.4         1 A02       0.2185
     37 CCA        17.2025   13.2099    5.5836 C.2         1 A02       0.1782
     38 OAJ        18.0961   13.2116    6.4256 O.2         1 A02      -0.3969
     39 CBH        15.8801   12.7187    5.9435 C.3         1 A02       0.0374
     40 CAY        14.7398   13.7207    5.5685 C.3         1 A02      -0.0360
     41 CAT        13.3965   13.3350    6.2522 C.3         1 A02      -0.0492
     42 CAV        12.4652   14.5485    6.5678 C.3         1 A02      -0.0326
     43 CBC        11.3983   14.8893    5.4752 C.3         1 A02       0.0310
     44 NBQ        10.0887   14.7895    6.0536 N.am        1 A02      -0.2851
     45 NBT        17.4020   13.6897    4.3570 N.am        1 A02      -0.2656
     46 CCJ        18.5655   14.3527    3.8227 C.3         1 A02       0.1310
     47 CBK        19.9116   13.5647    4.0194 C.3         1 A02      -0.0092
     48 CBB        21.1041   14.1804    3.2258 C.3         1 A02      -0.0156
     49 CBF        22.2200   13.1448    2.8822 C.3         1 A02       0.0627
     50 NBP        22.9646   13.5946    1.7808 N.pl3       1 A02      -0.2723
     51 CBX        24.2193   13.4405    1.5542 C.cat       1 A02       0.2882
     52 NAB        25.0629   12.9079    2.3568 N.pl3       1 A02      -0.2849
     53 NAE        24.6747   13.8599    0.4347 N.pl3       1 A02      -0.2849
     54 CCD        18.5947   15.7380    4.3000 C.2         1 A02       0.2039
     55 OAM        18.9465   15.9839    5.4499 O.2         1 A02      -0.3944
     56 N          18.1923   16.7231    3.4955 N.am        1 A02      -0.2637
     57 CA         18.1616   18.1259    3.8076 C.3         1 A02       0.1307
     58 CB         17.0377   18.4682    4.8471 C.3         1 A02      -0.0092
     59 CG         17.2193   19.8425    5.5699 C.3         1 A02      -0.0156
     60 CD         18.2385   19.8635    6.7580 C.3         1 A02       0.0627
     61 NE         17.6741   19.5550    8.0074 N.pl3       1 A02      -0.2723
     62 CZ         17.3879   18.4041    8.4962 C.cat       1 A02       0.2882
     63 NH1        17.6428   17.2848    7.9377 N.pl3       1 A02      -0.2849
     64 NH2        16.7979   18.3769    9.6284 N.pl3       1 A02      -0.2849
     65 C          17.9792   18.8610    2.5567 C.2         1 A02       0.1992
     66 O          17.0098   18.6493    1.8381 O.2         1 A02      -0.3947
     67 NAF        18.8505   19.7510    2.1366 N.am        1 A02      -0.2990
     68 H1         11.2670    3.4612   13.3616 H           1 A02       0.0996
     69 H2          9.9125    2.4880   18.3612 H           1 A02       0.1820
     70 H3         11.3462    1.9853   17.6476 H           1 A02       0.1820
     71 H4          6.1225    4.9923   16.8862 H           1 A02       0.1349
     72 H5          5.2414    8.8670   13.3211 H           1 A02       0.2102
     73 H6          5.2571    7.3269   16.2484 H           1 A02       0.2101
     74 H7          8.0043    8.4920   13.8444 H           1 A02       0.0673
     75 H8          7.2478    7.4054   15.6757 H           1 A02       0.0678
     76 H9          6.0079    7.0657   12.0254 H           1 A02       0.0869
     77 H10         5.7273    5.3436   14.1011 H           1 A02       0.0998
     78 H11         6.9587   11.1786    7.1111 H           1 A02       0.0502
     79 H12         7.4377   11.9185    8.6250 H           1 A02       0.0502
     80 H13         9.7489   11.5647    8.2462 H           1 A02       0.0290
     81 H14         9.5698   11.5334    6.4951 H           1 A02       0.0290
     82 H15        10.1871    9.3194    7.4190 H           1 A02       0.0267
     83 H16         8.7053    9.3081    6.4728 H           1 A02       0.0267
     84 H17         8.6640    7.8456    8.5129 H           1 A02       0.0285
     85 H18         7.3201    8.9761    8.3962 H           1 A02       0.0285
     86 H19         8.5396   10.4997   10.0278 H           1 A02       0.0520
     87 H20         9.7825    9.2587   10.2226 H           1 A02       0.0520
     88 H21         7.2518    9.4129   11.4103 H           1 A02       0.1851
     89 H22         8.0478   14.1415    8.6006 H           1 A02       0.1883
     90 H23         8.3955   16.1805    7.9824 H           1 A02       0.0800
     91 H24         6.2358   15.5546    5.9241 H           1 A02       0.0312
     92 H25         6.8617   17.1651    6.1757 H           1 A02       0.0312
     93 H26         5.7576   15.6014    8.5398 H           1 A02       0.0269
     94 H27         4.6589   16.3791    7.4239 H           1 A02       0.0269
     95 H28         6.8920   18.0857    8.5675 H           1 A02       0.0317
     96 H29         5.5795   17.6005    9.6516 H           1 A02       0.0317
     97 H30         3.8933   18.6475    8.2173 H           1 A02       0.0813
     98 H31         5.1220   19.0898    7.0073 H           1 A02       0.0813
     99 H32         4.3949   20.7856    8.7171 H           1 A02       0.1994
    100 H33         6.0225   20.6304    8.4068 H           1 A02       0.1994
    101 H34         5.3885   19.9676    9.7839 H           1 A02       0.1994
    102 H35        15.8574   12.5297    7.0256 H           1 A02       0.0502
    103 H36        15.7089   11.7656    5.4273 H           1 A02       0.0502
    104 H37        14.6043   13.7353    4.4771 H           1 A02       0.0290
    105 H38        15.0313   14.7272    5.9009 H           1 A02       0.0290
    106 H39        13.6271   12.8485    7.2116 H           1 A02       0.0267
    107 H40        12.8606   12.6051    5.6314 H           1 A02       0.0267
    108 H41        13.0851   15.4341    6.7622 H           1 A02       0.0285
    109 H42        11.9634   14.3118    7.5183 H           1 A02       0.0285
    110 H43        11.4392   14.1773    4.6460 H           1 A02       0.0520
    111 H44        11.5959   15.8833    5.0669 H           1 A02       0.0520
    112 H45         9.9355   13.9676    6.5452 H           1 A02       0.1851
    113 H46        16.6509   13.6322    3.7370 H           1 A02       0.1883
    114 H47        18.3917   14.3683    2.7364 H           1 A02       0.0800
    115 H48        19.7532   12.5337    3.6696 H           1 A02       0.0313
    116 H49        20.1744   13.5363    5.0854 H           1 A02       0.0313
    117 H50        21.5633   14.9858    3.8192 H           1 A02       0.0301
    118 H51        20.7139   14.6133    2.2889 H           1 A02       0.0301
    119 H52        21.7597   12.1823    2.6118 H           1 A02       0.0689
    120 H53        22.8624   13.0075    3.7649 H           1 A02       0.0689
    121 H54        22.4798   14.0381    1.1037 H           1 A02       0.2642
    122 H55        25.9607   12.8396    2.1026 H           1 A02       0.2615
    123 H56        24.7996   12.6141    3.2050 H           1 A02       0.2615
    124 H57        24.1037   14.2572   -0.1895 H           1 A02       0.2615
    125 H58        25.5824   13.7612    0.2344 H           1 A02       0.2615
    126 H59        17.9295   16.4747    2.5910 H           1 A02       0.1883
    127 H60        19.1312   18.3990    4.2435 H           1 A02       0.0800
    128 H61        16.9784   17.6804    5.6018 H           1 A02       0.0313
    129 H62        16.0653   18.4879    4.3396 H           1 A02       0.0313
    130 H63        16.2442   20.1768    5.9541 H           1 A02       0.0301
    131 H64        17.5400   20.5928    4.8345 H           1 A02       0.0301
    132 H65        18.6215   20.8859    6.8566 H           1 A02       0.0689
    133 H66        19.1046   19.2292    6.5506 H           1 A02       0.0689
    134 H67        17.4230   20.2927    8.5342 H           1 A02       0.2642
    135 H68        17.3555   16.4916    8.3435 H           1 A02       0.2615
    136 H69        18.1029   17.2570    7.1212 H           1 A02       0.2615
    137 H70        16.6006   19.1805   10.0656 H           1 A02       0.2615
    138 H71        16.5823   17.5544   10.0212 H           1 A02       0.2615
    139 H72        18.7083   20.2140    1.2982 H           1 A02       0.1815
    140 H73        19.6356   19.9513    2.6631 H           1 A02       0.1815
@<TRIPOS>BOND
     1     2     1  ar
     2     6     1  ar
     3     3     2  ar
     4     4     3  ar
     5     4     5  ar
     6    10     4   1
     7     5     6  ar
     8     8     5   1
     9     6     7   1
    10     9     8   2
    11    10     9   1
    12    19    10   1
    13    15    11   2
    14    16    12   1
    15    17    13   1
    16    18    14   1
    17    14    19   1
    18    15    18   1
    19    27    15  am
    20    16    17   1
    21    18    16   1
    22    17    19   1
    23    20    21   2
    24    20    22   1
    25    28    20  am
    26    22    23   1
    27    23    24   1
    28    24    25   1
    29    25    26   1
    30    26    27   1
    31    29    28   1
    32    30    29   1
    33    29    32   1
    34    30    31   2
    35    44    30  am
    36    32    33   1
    37    33    34   1
    38    34    35   1
    39    35    36   1
    40    37    38   2
    41    39    37   1
    42    37    45  am
    43    40    39   1
    44    41    40   1
    45    42    41   1
    46    43    42   1
    47    43    44   1
    48    45    46   1
    49    46    47   1
    50    46    54   1
    51    47    48   1
    52    48    49   1
    53    49    50   1
    54    50    51  ar
    55    51    52  ar
    56    51    53  ar
    57    54    55   2
    58    54    56  am
    59    56    57   1
    60    57    58   1
    61    57    65   1
    62    58    59   1
    63    59    60   1
    64    60    61   1
    65    61    62  ar
    66    62    63  ar
    67    62    64  ar
    68    65    66   2
    69    65    67  am
    70     2    68   1
    71     7    69   1
    72     7    70   1
    73     9    71   1
    74    12    72   1
    75    13    73   1
    76    16    74   1
    77    17    75   1
    78    18    76   1
    79    19    77   1
    80    22    78   1
    81    22    79   1
    82    23    80   1
    83    23    81   1
    84    24    82   1
    85    24    83   1
    86    25    84   1
    87    25    85   1
    88    26    86   1
    89    26    87   1
    90    27    88   1
    91    28    89   1
    92    29    90   1
    93    32    91   1
    94    32    92   1
    95    33    93   1
    96    33    94   1
    97    34    95   1
    98    34    96   1
    99    35    97   1
   100    35    98   1
   101    36    99   1
   102    36   100   1
   103    36   101   1
   104    39   102   1
   105    39   103   1
   106    40   104   1
   107    40   105   1
   108    41   106   1
   109    41   107   1
   110    42   108   1
   111    42   109   1
   112    43   110   1
   113    43   111   1
   114    44   112   1
   115    45   113   1
   116    46   114   1
   117    47   115   1
   118    47   116   1
   119    48   117   1
   120    48   118   1
   121    49   119   1
   122    49   120   1
   123    50   121   1
   124    52   122   1
   125    52   123   1
   126    53   124   1
   127    53   125   1
   128    56   126   1
   129    57   127   1
   130    58   128   1
   131    58   129   1
   132    59   130   1
   133    59   131   1
   134    60   132   1
   135    60   133   1
   136    61   134   1
   137    63   135   1
   138    63   136   1
   139    64   137   1
   140    64   138   1
   141    67   139   1
   142    67   140   1
@<TRIPOS>SUBSTRUCTURE
     1  A02      2

