@<TRIPOS>MOLECULE
3ag9_ligand_054
   140   142
SMALL
GAST_HUCK
****
This file was generated by PARSER (from files_GN.cpp)

@<TRIPOS>ATOM
      1 N1          6.6430    7.9109   14.4645 N.ar        1 A02      -0.2698
      2 C2          6.7942    6.7076   15.0837 C.ar        1 A02       0.0533
      3 N3          7.9776    6.0423   15.0207 N.ar        1 A02      -0.2714
      4 C4          9.0229    6.5811   14.3343 C.ar        1 A02       0.1613
      5 C5          8.8947    7.8153   13.7002 C.ar        1 A02       0.1045
      6 C6          7.6625    8.4910   13.7708 C.ar        1 A02       0.1298
      7 N6          7.4869    9.6843   13.1814 N.pl3       1 A02      -0.3152
      8 N7         10.0637    8.1263   13.1198 N.2         1 A02      -0.2958
      9 C8         10.8939    7.1023   13.3921 C.2         1 A02       0.1123
     10 N9         10.2764    6.1414   14.1207 N.pl3       1 A02      -0.1918
     11 OAL        14.3775    2.1022   13.5895 O.2         1 A02      -0.3941
     12 OAN        11.0454    1.6476   15.1423 O.3         1 A02      -0.3840
     13 OAO         8.9689    3.3054   14.6902 O.3         1 A02      -0.3834
     14 OBV        12.2155    4.7607   14.1870 O.3         1 A02      -0.3181
     15 CCC        13.6217    3.0252   13.3152 C.2         1 A02       0.2080
     16 CCK        11.2535    2.5659   14.0661 C.3         1 A02       0.1295
     17 CCL        10.1626    3.6500   13.9869 C.3         1 A02       0.1408
     18 CCM        12.5704    3.3699   14.2625 C.3         1 A02       0.1788
     19 CCN        10.8441    4.9014   14.5799 C.3         1 A02       0.2035
     20 CBZ        13.8428    6.9738    7.9189 C.2         1 A02       0.1782
     21 OAI        14.6123    7.1102    8.8726 O.2         1 A02      -0.3969
     22 CBG        13.8756    5.7398    7.1363 C.3         1 A02       0.0374
     23 CAX        15.0560    4.7399    7.3521 C.3         1 A02      -0.0360
     24 CAU        15.4429    4.3595    8.8143 C.3         1 A02      -0.0492
     25 CAW        14.2628    4.1265    9.8010 C.3         1 A02      -0.0326
     26 CBD        14.7377    3.5200   11.1502 C.3         1 A02       0.0310
     27 NBR        13.7528    3.7046   12.1750 N.am        1 A02      -0.2847
     28 NBS        12.9070    7.8698    7.6228 N.am        1 A02      -0.2656
     29 CCI        12.5675    9.0495    8.3790 C.3         1 A02       0.1308
     30 CCB        11.9380   10.0678    7.5388 C.2         1 A02       0.2016
     31 OAK        12.1223   10.0123    6.3249 O.2         1 A02      -0.3945
     32 CBJ        11.7463    8.6005    9.6381 C.3         1 A02      -0.0122
     33 CAZ        10.2784    8.1312    9.3870 C.3         1 A02      -0.0440
     34 CAS        10.1455    6.6697    8.8749 C.3         1 A02      -0.0124
     35 CAR         8.7089    6.0980    8.9744 C.3         1 A02      -0.0354
     36 NAC         7.8732    6.4972    7.8302 N.4         1 A02       0.2185
     37 CCA        14.5253   13.3344    4.9095 C.2         1 A02       0.1782
     38 OAJ        14.9189   12.2335    5.2863 O.2         1 A02      -0.3969
     39 CBH        13.1180   13.5106    4.5948 C.3         1 A02       0.0374
     40 CAY        12.3527   14.4192    5.5963 C.3         1 A02      -0.0360
     41 CAT        12.5703   14.0843    7.1083 C.3         1 A02      -0.0492
     42 CAV        11.3018   13.5972    7.8633 C.3         1 A02      -0.0326
     43 CBC        10.7331   12.2352    7.3820 C.3         1 A02       0.0310
     44 NBQ        11.3436   11.1347    8.0692 N.am        1 A02      -0.2851
     45 NBT        15.3563   14.3645    4.8166 N.am        1 A02      -0.2656
     46 CCJ        16.7424   14.3895    5.1780 C.3         1 A02       0.1310
     47 CBK        17.1613   15.8701    5.4153 C.3         1 A02      -0.0092
     48 CBB        18.5055   16.0433    6.1752 C.3         1 A02      -0.0156
     49 CBF        18.6681   17.4068    6.8882 C.3         1 A02       0.0627
     50 NBP        17.9731   17.4179    8.1015 N.pl3       1 A02      -0.2723
     51 CBX        18.0777   18.2969    9.0361 C.cat       1 A02       0.2882
     52 NAB        18.8274   19.3314    8.9899 N.pl3       1 A02      -0.2849
     53 NAE        17.3842   18.1304   10.0927 N.pl3       1 A02      -0.2849
     54 CCD        17.5816   13.7227    4.1834 C.2         1 A02       0.2039
     55 OAM        17.1594   13.5541    3.0432 O.2         1 A02      -0.3944
     56 N          18.8118   13.3469    4.5130 N.am        1 A02      -0.2637
     57 CA         19.8598   12.8310    3.6701 C.3         1 A02       0.1307
     58 CB         20.8308   13.9691    3.2238 C.3         1 A02      -0.0092
     59 CG         20.2112   15.2263    2.5468 C.3         1 A02      -0.0156
     60 CD         21.2346   16.3772    2.3268 C.3         1 A02       0.0627
     61 NE         20.6700   17.6531    2.4132 N.pl3       1 A02      -0.2723
     62 CZ         19.8689   18.2335    1.5969 C.cat       1 A02       0.2882
     63 NH1        19.4377   17.7177    0.5079 N.pl3       1 A02      -0.2849
     64 NH2        19.4792   19.4125    1.9011 N.pl3       1 A02      -0.2849
     65 C          19.3876   11.9089    2.6451 C.2         1 A02       0.1992
     66 O          19.6247   12.0671    1.4531 O.2         1 A02      -0.3947
     67 NAF        18.7115   10.8339    2.9774 N.am        1 A02      -0.2990
     68 H1          6.0123    6.3019   15.5980 H           1 A02       0.0996
     69 H2          8.2189   10.1034   12.6929 H           1 A02       0.1820
     70 H3          6.6250   10.1353   13.2406 H           1 A02       0.1820
     71 H4         11.8631    7.0769   13.0756 H           1 A02       0.1349
     72 H5         10.9297    2.2006   15.9442 H           1 A02       0.2102
     73 H6          8.5548    2.5948   14.1637 H           1 A02       0.2101
     74 H7         11.2568    1.9864   13.1388 H           1 A02       0.0673
     75 H8          9.9086    3.8357   12.9384 H           1 A02       0.0678
     76 H9         12.9604    3.2010   15.2689 H           1 A02       0.0869
     77 H10        10.7915    4.8777   15.6753 H           1 A02       0.0998
     78 H11        13.8834    6.0163    6.0706 H           1 A02       0.0502
     79 H12        12.9460    5.1832    7.3235 H           1 A02       0.0502
     80 H13        15.9547    5.1487    6.8757 H           1 A02       0.0290
     81 H14        14.8068    3.8094    6.8200 H           1 A02       0.0290
     82 H15        16.0812    5.1495    9.2239 H           1 A02       0.0267
     83 H16        16.0406    3.4358    8.7732 H           1 A02       0.0267
     84 H17        13.5263    3.4521    9.3449 H           1 A02       0.0285
     85 H18        13.7709    5.0808   10.0058 H           1 A02       0.0285
     86 H19        15.6379    4.0423   11.4812 H           1 A02       0.0520
     87 H20        14.9906    2.4657   11.0030 H           1 A02       0.0520
     88 H21        13.1391    4.4462   12.0394 H           1 A02       0.1851
     89 H22        12.3296    7.6513    6.8601 H           1 A02       0.1883
     90 H23        13.4938    9.5083    8.7545 H           1 A02       0.0800
     91 H24        11.7254    9.4364   10.3374 H           1 A02       0.0312
     92 H25        12.2964    7.8000   10.1542 H           1 A02       0.0312
     93 H26         9.7853    8.8127    8.6828 H           1 A02       0.0269
     94 H27         9.7349    8.1999   10.3358 H           1 A02       0.0269
     95 H28        10.8085    6.0262    9.4635 H           1 A02       0.0317
     96 H29        10.4667    6.6079    7.8305 H           1 A02       0.0317
     97 H30         8.2238    6.4318    9.8992 H           1 A02       0.0813
     98 H31         8.7529    5.0019    8.9896 H           1 A02       0.0813
     99 H32         6.9408    6.0775    7.9232 H           1 A02       0.1994
    100 H33         8.3059    6.1654    6.9621 H           1 A02       0.1994
    101 H34         7.7860    7.5205    7.7949 H           1 A02       0.1994
    102 H35        12.6087   12.5459    4.5497 H           1 A02       0.0502
    103 H36        13.0506   13.9575    3.6019 H           1 A02       0.0502
    104 H37        11.2870   14.3646    5.3536 H           1 A02       0.0290
    105 H38        12.6444   15.4595    5.4230 H           1 A02       0.0290
    106 H39        12.9160   14.9934    7.6168 H           1 A02       0.0267
    107 H40        13.3578   13.3390    7.2377 H           1 A02       0.0267
    108 H41        10.5189   14.3592    7.7632 H           1 A02       0.0285
    109 H42        11.5308   13.5239    8.9329 H           1 A02       0.0285
    110 H43        10.8197   12.1588    6.2982 H           1 A02       0.0520
    111 H44         9.6676   12.2038    7.6312 H           1 A02       0.0520
    112 H45        11.2743   11.1593    9.0372 H           1 A02       0.1851
    113 H46        14.9671   15.2072    4.5210 H           1 A02       0.1883
    114 H47        16.8442   13.8728    6.1410 H           1 A02       0.0800
    115 H48        16.3692   16.3514    5.9957 H           1 A02       0.0313
    116 H49        17.2231   16.3990    4.4601 H           1 A02       0.0313
    117 H50        19.3263   15.9393    5.4676 H           1 A02       0.0301
    118 H51        18.6149   15.2487    6.9236 H           1 A02       0.0301
    119 H52        18.3126   18.2111    6.2372 H           1 A02       0.0689
    120 H53        19.7346   17.5678    7.0833 H           1 A02       0.0689
    121 H54        17.3815   16.7071    8.2664 H           1 A02       0.2642
    122 H55        18.8453   19.9076    9.7267 H           1 A02       0.2615
    123 H56        19.3567   19.5058    8.2391 H           1 A02       0.2615
    124 H57        16.8261   17.3841   10.1865 H           1 A02       0.2615
    125 H58        17.4489   18.7568   10.7829 H           1 A02       0.2615
    126 H59        19.0795   13.5405    5.4285 H           1 A02       0.1883
    127 H60        20.4647   12.2099    4.3389 H           1 A02       0.0800
    128 H61        21.5829   13.5431    2.5512 H           1 A02       0.0313
    129 H62        21.3680   14.3059    4.1203 H           1 A02       0.0313
    130 H63        19.4003   15.5952    3.1768 H           1 A02       0.0301
    131 H64        19.7751   14.9457    1.5856 H           1 A02       0.0301
    132 H65        21.7456   16.2485    1.3676 H           1 A02       0.0689
    133 H66        22.0026   16.3383    3.1046 H           1 A02       0.0689
    134 H67        20.9076   18.1464    3.1771 H           1 A02       0.2642
    135 H68        18.8533   18.1996   -0.0371 H           1 A02       0.2615
    136 H69        19.7006   16.8564    0.2571 H           1 A02       0.2615
    137 H70        19.7830   19.8076    2.6919 H           1 A02       0.2615
    138 H71        18.8976   19.8749    1.3363 H           1 A02       0.2615
    139 H72        18.4160   10.2043    2.3003 H           1 A02       0.1815
    140 H73        18.5139   10.6512    3.9117 H           1 A02       0.1815
@<TRIPOS>BOND
     1     2     1  ar
     2     6     1  ar
     3     3     2  ar
     4     4     3  ar
     5     4     5  ar
     6    10     4   1
     7     5     6  ar
     8     8     5   1
     9     6     7   1
    10     9     8   2
    11    10     9   1
    12    19    10   1
    13    15    11   2
    14    16    12   1
    15    17    13   1
    16    18    14   1
    17    14    19   1
    18    15    18   1
    19    27    15  am
    20    16    17   1
    21    18    16   1
    22    17    19   1
    23    20    21   2
    24    20    22   1
    25    28    20  am
    26    22    23   1
    27    23    24   1
    28    24    25   1
    29    25    26   1
    30    26    27   1
    31    29    28   1
    32    30    29   1
    33    29    32   1
    34    30    31   2
    35    44    30  am
    36    32    33   1
    37    33    34   1
    38    34    35   1
    39    35    36   1
    40    37    38   2
    41    39    37   1
    42    37    45  am
    43    40    39   1
    44    41    40   1
    45    42    41   1
    46    43    42   1
    47    43    44   1
    48    45    46   1
    49    46    47   1
    50    46    54   1
    51    47    48   1
    52    48    49   1
    53    49    50   1
    54    50    51  ar
    55    51    52  ar
    56    51    53  ar
    57    54    55   2
    58    54    56  am
    59    56    57   1
    60    57    58   1
    61    57    65   1
    62    58    59   1
    63    59    60   1
    64    60    61   1
    65    61    62  ar
    66    62    63  ar
    67    62    64  ar
    68    65    66   2
    69    65    67  am
    70     2    68   1
    71     7    69   1
    72     7    70   1
    73     9    71   1
    74    12    72   1
    75    13    73   1
    76    16    74   1
    77    17    75   1
    78    18    76   1
    79    19    77   1
    80    22    78   1
    81    22    79   1
    82    23    80   1
    83    23    81   1
    84    24    82   1
    85    24    83   1
    86    25    84   1
    87    25    85   1
    88    26    86   1
    89    26    87   1
    90    27    88   1
    91    28    89   1
    92    29    90   1
    93    32    91   1
    94    32    92   1
    95    33    93   1
    96    33    94   1
    97    34    95   1
    98    34    96   1
    99    35    97   1
   100    35    98   1
   101    36    99   1
   102    36   100   1
   103    36   101   1
   104    39   102   1
   105    39   103   1
   106    40   104   1
   107    40   105   1
   108    41   106   1
   109    41   107   1
   110    42   108   1
   111    42   109   1
   112    43   110   1
   113    43   111   1
   114    44   112   1
   115    45   113   1
   116    46   114   1
   117    47   115   1
   118    47   116   1
   119    48   117   1
   120    48   118   1
   121    49   119   1
   122    49   120   1
   123    50   121   1
   124    52   122   1
   125    52   123   1
   126    53   124   1
   127    53   125   1
   128    56   126   1
   129    57   127   1
   130    58   128   1
   131    58   129   1
   132    59   130   1
   133    59   131   1
   134    60   132   1
   135    60   133   1
   136    61   134   1
   137    63   135   1
   138    63   136   1
   139    64   137   1
   140    64   138   1
   141    67   139   1
   142    67   140   1
@<TRIPOS>SUBSTRUCTURE
     1  A02      2

