@<TRIPOS>MOLECULE
3ag9_ligand_051
   140   142
SMALL
GAST_HUCK
****
This file was generated by PARSER (from files_GN.cpp)

@<TRIPOS>ATOM
      1 N1          2.2271   10.3180   15.6660 N.ar        1 A02      -0.2698
      2 C2          3.0540   10.6006   14.6241 C.ar        1 A02       0.0533
      3 N3          2.8967   11.7568   13.9273 N.ar        1 A02      -0.2714
      4 C4          1.9046   12.6243   14.2614 C.ar        1 A02       0.1613
      5 C5          1.0466   12.3454   15.3210 C.ar        1 A02       0.1045
      6 C6          1.2139   11.1490   16.0394 C.ar        1 A02       0.1298
      7 N6          0.4319   10.8217   17.0764 N.pl3       1 A02      -0.3152
      8 N7          0.1764   13.3578   15.4462 N.2         1 A02      -0.2958
      9 C8          0.4958   14.2445   14.4860 C.2         1 A02       0.1123
     10 N9          1.5480   13.8192   13.7509 N.pl3       1 A02      -0.1918
     11 OAL         6.2981   13.1886   12.2668 O.2         1 A02      -0.3941
     12 OAN         5.4449   16.1736   12.9640 O.3         1 A02      -0.3840
     13 OAO         2.8589   16.9069   12.4384 O.3         1 A02      -0.3834
     14 OBV         3.0205   13.7173   11.8776 O.3         1 A02      -0.3181
     15 CCC         5.3412   13.3193   11.5091 C.2         1 A02       0.2080
     16 CCK         4.4508   15.1597   13.0649 C.3         1 A02       0.1295
     17 CCL         3.0329   15.7222   13.2194 C.3         1 A02       0.1408
     18 CCM         4.3169   14.3218   11.7737 C.3         1 A02       0.1788
     19 CCN         2.1649   14.5561   12.6810 C.3         1 A02       0.2035
     20 CBZ         9.5506    8.6625    8.7918 C.2         1 A02       0.1782
     21 OAI         9.7004    7.6826    8.0667 O.2         1 A02      -0.3969
     22 CBG         8.4004    8.6834    9.6820 C.3         1 A02       0.0374
     23 CAX         7.0340    8.5884    8.9429 C.3         1 A02      -0.0360
     24 CAU         6.6548    9.8328    8.0814 C.3         1 A02      -0.0492
     25 CAW         5.6649   10.8375    8.7330 C.3         1 A02      -0.0326
     26 CBD         6.1864   11.5805    9.9889 C.3         1 A02       0.0310
     27 NBR         5.2378   12.5634   10.4208 N.am        1 A02      -0.2847
     28 NBS        10.4119    9.6696    8.7722 N.am        1 A02      -0.2656
     29 CCI        11.6048    9.7976    7.9741 C.3         1 A02       0.1308
     30 CCB        11.5129   11.0097    7.1608 C.2         1 A02       0.2016
     31 OAK        11.6379   10.9117    5.9465 O.2         1 A02      -0.3945
     32 CBJ        12.8538    9.7972    8.9083 C.3         1 A02      -0.0122
     33 CAZ        14.2449    9.8028    8.2042 C.3         1 A02      -0.0440
     34 CAS        14.6434    8.4961    7.4482 C.3         1 A02      -0.0124
     35 CAR        14.3856    8.4894    5.9171 C.3         1 A02      -0.0354
     36 NAC        15.2679    9.4119    5.1906 N.4         1 A02       0.2185
     37 CCA        15.3506   13.4123    3.8633 C.2         1 A02       0.1782
     38 OAJ        16.1868   13.2177    4.7351 O.2         1 A02      -0.3969
     39 CBH        14.0042   12.8917    4.0427 C.3         1 A02       0.0374
     40 CAY        12.9132   13.9853    4.2112 C.3         1 A02      -0.0360
     41 CAT        12.9711   14.8104    5.5309 C.3         1 A02      -0.0492
     42 CAV        12.7495   14.0268    6.8574 C.3         1 A02      -0.0326
     43 CBC        11.3139   13.4647    7.0780 C.3         1 A02       0.0310
     44 NBQ        11.3245   12.1896    7.7361 N.am        1 A02      -0.2851
     45 NBT        15.6628   14.0002    2.7138 N.am        1 A02      -0.2656
     46 CCJ        16.9610   14.4182    2.2540 C.3         1 A02       0.1310
     47 CBK        17.9401   13.2050    2.1009 C.3         1 A02      -0.0092
     48 CBB        19.1081   13.3677    1.0791 C.3         1 A02      -0.0156
     49 CBF        20.4260   13.9865    1.6159 C.3         1 A02       0.0627
     50 NBP        20.4007   15.3829    1.6869 N.pl3       1 A02      -0.2723
     51 CBX        20.8054   16.1408    2.6412 C.cat       1 A02       0.2882
     52 NAB        21.2693   15.7482    3.7628 N.pl3       1 A02      -0.2849
     53 NAE        20.7464   17.4038    2.4622 N.pl3       1 A02      -0.2849
     54 CCD        17.4497   15.5505    3.0326 C.2         1 A02       0.2039
     55 OAM        18.1564   15.3534    4.0134 O.2         1 A02      -0.3944
     56 N          17.0192   16.7724    2.7371 N.am        1 A02      -0.2637
     57 CA         17.4184   18.0214    3.3289 C.3         1 A02       0.1307
     58 CB         16.3731   18.5139    4.3770 C.3         1 A02      -0.0092
     59 CG         16.3814   17.7617    5.7407 C.3         1 A02      -0.0156
     60 CD         17.7330   17.8245    6.5068 C.3         1 A02       0.0627
     61 NE         17.5531   17.6189    7.8813 N.pl3       1 A02      -0.2723
     62 CZ         17.8699   18.3936    8.8514 C.cat       1 A02       0.2882
     63 NH1        18.4603   19.5223    8.7537 N.pl3       1 A02      -0.2849
     64 NH2        17.5697   18.0240   10.0368 N.pl3       1 A02      -0.2849
     65 C          17.5906   19.0083    2.2683 C.2         1 A02       0.1992
     66 O          16.6959   19.2193    1.4601 O.2         1 A02      -0.3947
     67 NAF        18.6712   19.7531    2.1805 N.am        1 A02      -0.2990
     68 H1          3.8015    9.9527   14.3760 H           1 A02       0.0996
     69 H2         -0.2727   11.4224   17.3699 H           1 A02       0.1820
     70 H3          0.5816    9.9895   17.5496 H           1 A02       0.1820
     71 H4          0.0016   15.1322   14.3450 H           1 A02       0.1349
     72 H5          5.4211   16.6384   13.8266 H           1 A02       0.2102
     73 H6          1.9296   17.1814   12.5914 H           1 A02       0.2101
     74 H7          4.6843   14.5157   13.9190 H           1 A02       0.0673
     75 H8          2.8265   15.9673   14.2663 H           1 A02       0.0678
     76 H9          4.3001   15.0013   10.9157 H           1 A02       0.0869
     77 H10         1.3772   14.9395   12.0233 H           1 A02       0.0998
     78 H11         8.4078    9.5823   10.3004 H           1 A02       0.0502
     79 H12         8.4853    7.8310   10.3602 H           1 A02       0.0502
     80 H13         6.2510    8.4024    9.6806 H           1 A02       0.0290
     81 H14         7.0552    7.7041    8.2970 H           1 A02       0.0290
     82 H15         6.1746    9.4716    7.1667 H           1 A02       0.0267
     83 H16         7.5530   10.3699    7.7675 H           1 A02       0.0267
     84 H17         4.7453   10.3072    8.9949 H           1 A02       0.0285
     85 H18         5.4045   11.5862    7.9789 H           1 A02       0.0285
     86 H19         7.1315   12.0761    9.7556 H           1 A02       0.0520
     87 H20         6.3464   10.8617   10.7942 H           1 A02       0.0520
     88 H21         4.4470   12.6933    9.8723 H           1 A02       0.1851
     89 H22        10.2342   10.4017    9.3863 H           1 A02       0.1883
     90 H23        11.6983    8.9254    7.3233 H           1 A02       0.0800
     91 H24        12.8086    8.9161    9.5573 H           1 A02       0.0312
     92 H25        12.8070   10.6693    9.5671 H           1 A02       0.0312
     93 H26        14.9896    9.9634    8.9892 H           1 A02       0.0269
     94 H27        14.3112   10.6630    7.5399 H           1 A02       0.0269
     95 H28        14.1202    7.6446    7.8889 H           1 A02       0.0317
     96 H29        15.7112    8.3152    7.5953 H           1 A02       0.0317
     97 H30        13.3531    8.7512    5.6970 H           1 A02       0.0813
     98 H31        14.5647    7.4852    5.5299 H           1 A02       0.0813
     99 H32        15.0178    9.4015    4.1973 H           1 A02       0.1994
    100 H33        16.2415    9.1134    5.2989 H           1 A02       0.1994
    101 H34        15.1587   10.3619    5.5557 H           1 A02       0.1994
    102 H35        13.9665   12.2114    4.8972 H           1 A02       0.0502
    103 H36        13.7563   12.2907    3.1642 H           1 A02       0.0502
    104 H37        11.9347   13.5090    4.1301 H           1 A02       0.0290
    105 H38        12.9846   14.6858    3.3734 H           1 A02       0.0290
    106 H39        12.2235   15.6053    5.4762 H           1 A02       0.0267
    107 H40        13.9489   15.2968    5.5825 H           1 A02       0.0267
    108 H41        12.9732   14.7116    7.6808 H           1 A02       0.0285
    109 H42        13.4903   13.2266    6.9216 H           1 A02       0.0285
    110 H43        10.7521   13.3960    6.1422 H           1 A02       0.0520
    111 H44        10.7641   14.1603    7.7158 H           1 A02       0.0520
    112 H45        11.1838   12.1890    8.6965 H           1 A02       0.1851
    113 H46        14.9387   14.1045    2.0772 H           1 A02       0.1883
    114 H47        16.7803   14.7789    1.2368 H           1 A02       0.0800
    115 H48        17.3434   12.3568    1.7476 H           1 A02       0.0313
    116 H49        18.3397   12.9104    3.0732 H           1 A02       0.0313
    117 H50        18.7708   13.9237    0.2018 H           1 A02       0.0301
    118 H51        19.3683   12.3637    0.7269 H           1 A02       0.0301
    119 H52        21.2215   13.7461    0.9057 H           1 A02       0.0689
    120 H53        20.6871   13.5075    2.5611 H           1 A02       0.0689
    121 H54        20.0959   15.8250    0.9179 H           1 A02       0.2642
    122 H55        21.5421   16.3828    4.3902 H           1 A02       0.2615
    123 H56        21.3480   14.8399    3.9651 H           1 A02       0.2615
    124 H57        20.4131   17.7530    1.6595 H           1 A02       0.2615
    125 H58        21.0250   17.9816    3.1453 H           1 A02       0.2615
    126 H59        16.3730   16.8343    2.0134 H           1 A02       0.1883
    127 H60        18.3804   17.9059    3.8345 H           1 A02       0.0800
    128 H61        15.3706   18.4355    3.9439 H           1 A02       0.0313
    129 H62        16.5473   19.5744    4.5921 H           1 A02       0.0313
    130 H63        16.1046   16.7158    5.5808 H           1 A02       0.0301
    131 H64        15.5997   18.2130    6.3594 H           1 A02       0.0301
    132 H65        18.2229   18.7772    6.2911 H           1 A02       0.0689
    133 H66        18.3882   17.0354    6.1413 H           1 A02       0.0689
    134 H67        17.1327   16.8193    8.1234 H           1 A02       0.2642
    135 H68        18.6339   20.0150    9.5321 H           1 A02       0.2615
    136 H69        18.7191   19.8640    7.9252 H           1 A02       0.2615
    137 H70        17.1369   17.2055   10.1847 H           1 A02       0.2615
    138 H71        17.7785   18.5876   10.7606 H           1 A02       0.2615
    139 H72        18.7437   20.4201    1.4788 H           1 A02       0.1815
    140 H73        19.3887   19.6636    2.8281 H           1 A02       0.1815
@<TRIPOS>BOND
     1     2     1  ar
     2     6     1  ar
     3     3     2  ar
     4     4     3  ar
     5     4     5  ar
     6    10     4   1
     7     5     6  ar
     8     8     5   1
     9     6     7   1
    10     9     8   2
    11    10     9   1
    12    19    10   1
    13    15    11   2
    14    16    12   1
    15    17    13   1
    16    18    14   1
    17    14    19   1
    18    15    18   1
    19    27    15  am
    20    16    17   1
    21    18    16   1
    22    17    19   1
    23    20    21   2
    24    20    22   1
    25    28    20  am
    26    22    23   1
    27    23    24   1
    28    24    25   1
    29    25    26   1
    30    26    27   1
    31    29    28   1
    32    30    29   1
    33    29    32   1
    34    30    31   2
    35    44    30  am
    36    32    33   1
    37    33    34   1
    38    34    35   1
    39    35    36   1
    40    37    38   2
    41    39    37   1
    42    37    45  am
    43    40    39   1
    44    41    40   1
    45    42    41   1
    46    43    42   1
    47    43    44   1
    48    45    46   1
    49    46    47   1
    50    46    54   1
    51    47    48   1
    52    48    49   1
    53    49    50   1
    54    50    51  ar
    55    51    52  ar
    56    51    53  ar
    57    54    55   2
    58    54    56  am
    59    56    57   1
    60    57    58   1
    61    57    65   1
    62    58    59   1
    63    59    60   1
    64    60    61   1
    65    61    62  ar
    66    62    63  ar
    67    62    64  ar
    68    65    66   2
    69    65    67  am
    70     2    68   1
    71     7    69   1
    72     7    70   1
    73     9    71   1
    74    12    72   1
    75    13    73   1
    76    16    74   1
    77    17    75   1
    78    18    76   1
    79    19    77   1
    80    22    78   1
    81    22    79   1
    82    23    80   1
    83    23    81   1
    84    24    82   1
    85    24    83   1
    86    25    84   1
    87    25    85   1
    88    26    86   1
    89    26    87   1
    90    27    88   1
    91    28    89   1
    92    29    90   1
    93    32    91   1
    94    32    92   1
    95    33    93   1
    96    33    94   1
    97    34    95   1
    98    34    96   1
    99    35    97   1
   100    35    98   1
   101    36    99   1
   102    36   100   1
   103    36   101   1
   104    39   102   1
   105    39   103   1
   106    40   104   1
   107    40   105   1
   108    41   106   1
   109    41   107   1
   110    42   108   1
   111    42   109   1
   112    43   110   1
   113    43   111   1
   114    44   112   1
   115    45   113   1
   116    46   114   1
   117    47   115   1
   118    47   116   1
   119    48   117   1
   120    48   118   1
   121    49   119   1
   122    49   120   1
   123    50   121   1
   124    52   122   1
   125    52   123   1
   126    53   124   1
   127    53   125   1
   128    56   126   1
   129    57   127   1
   130    58   128   1
   131    58   129   1
   132    59   130   1
   133    59   131   1
   134    60   132   1
   135    60   133   1
   136    61   134   1
   137    63   135   1
   138    63   136   1
   139    64   137   1
   140    64   138   1
   141    67   139   1
   142    67   140   1
@<TRIPOS>SUBSTRUCTURE
     1  A02      2

