@<TRIPOS>MOLECULE
3ag9_ligand_004
   140   142
SMALL
GAST_HUCK
****
This file was generated by PARSER (from files_GN.cpp)

@<TRIPOS>ATOM
      1 N1          8.9831    4.9405   18.0314 N.ar        1 A02      -0.2698
      2 C2          9.9580    4.0872   18.4559 C.ar        1 A02       0.0533
      3 N3         10.6017    3.2859   17.5606 N.ar        1 A02      -0.2714
      4 C4         10.2652    3.3363   16.2452 C.ar        1 A02       0.1613
      5 C5          9.2713    4.1976   15.7952 C.ar        1 A02       0.1045
      6 C6          8.6240    5.0270   16.7230 C.ar        1 A02       0.1298
      7 N6          7.6715    5.8936   16.3403 N.pl3       1 A02      -0.3152
      8 N7          9.1504    4.0478   14.4710 N.2         1 A02      -0.2958
      9 C8         10.0492    3.1130   14.1130 C.2         1 A02       0.1123
     10 N9         10.7476    2.6685   15.1845 N.pl3       1 A02      -0.1918
     11 OAL        15.5638    3.1053   13.4185 O.2         1 A02      -0.3941
     12 OAN        14.0222   -0.3602   15.0884 O.3         1 A02      -0.3840
     13 OAO        11.4853   -0.3136   13.8807 O.3         1 A02      -0.3834
     14 OBV        13.0063    2.4104   15.7094 O.3         1 A02      -0.3181
     15 CCC        14.4344    3.1080   13.8854 C.2         1 A02       0.2080
     16 CCK        13.7213    0.7280   14.2113 C.3         1 A02       0.1295
     17 CCL        12.2093    0.9091   14.0139 C.3         1 A02       0.1408
     18 CCM        14.1186    2.0695   14.8649 C.3         1 A02       0.1788
     19 CCN        11.8210    1.7198   15.2721 C.3         1 A02       0.2035
     20 CBZ        14.3498    3.5898    6.8143 C.2         1 A02       0.1782
     21 OAI        13.6472    2.7334    6.2903 O.2         1 A02      -0.3969
     22 CBG        13.7611    4.4661    7.8211 C.3         1 A02       0.0374
     23 CAX        14.3127    4.2705    9.2683 C.3         1 A02      -0.0360
     24 CAU        14.3467    5.5900   10.0947 C.3         1 A02      -0.0492
     25 CAW        14.7294    5.3888   11.5920 C.3         1 A02      -0.0326
     26 CBD        13.5181    5.0443   12.5293 C.3         1 A02       0.0310
     27 NBR        13.5253    4.0004   13.5152 N.am        1 A02      -0.2847
     28 NBS        15.6012    3.8134    6.4084 N.am        1 A02      -0.2656
     29 CCI        16.2664    3.2486    5.2586 C.3         1 A02       0.1308
     30 CCB        16.4723    4.3322    4.2992 C.2         1 A02       0.2016
     31 OAK        15.8963    4.2858    3.2179 O.2         1 A02      -0.3945
     32 CBJ        17.5869    2.4620    5.5895 C.3         1 A02      -0.0122
     33 CAZ        18.4197    2.9264    6.8193 C.3         1 A02      -0.0440
     34 CAS        18.0572    2.1723    8.1312 C.3         1 A02      -0.0124
     35 CAR        18.5571    2.8713    9.4219 C.3         1 A02      -0.0354
     36 NAC        19.6329    2.1362   10.1004 N.4         1 A02       0.2185
     37 CCA        19.4178   11.1989    4.6318 C.2         1 A02       0.1782
     38 OAJ        19.7574   11.0481    5.7984 O.2         1 A02      -0.3969
     39 CBH        20.2963   10.6885    3.5967 C.3         1 A02       0.0374
     40 CAY        20.4856    9.1481    3.7054 C.3         1 A02      -0.0360
     41 CAT        19.2421    8.3468    3.2133 C.3         1 A02      -0.0492
     42 CAV        18.9104    7.1144    4.0970 C.3         1 A02      -0.0326
     43 CBC        17.5782    6.4366    3.6872 C.3         1 A02       0.0310
     44 NBQ        17.2765    5.3545    4.5723 N.am        1 A02      -0.2851
     45 NBT        18.2151   11.6823    4.3304 N.am        1 A02      -0.2656
     46 CCJ        17.2430   12.2284    5.2483 C.3         1 A02       0.1310
     47 CBK        16.2964   11.1105    5.8129 C.3         1 A02      -0.0092
     48 CBB        16.9229    9.6883    5.9373 C.3         1 A02      -0.0156
     49 CBF        16.0835    8.6397    6.7261 C.3         1 A02       0.0627
     50 NBP        16.3807    8.6323    8.0993 N.pl3       1 A02      -0.2723
     51 CBX        16.9532    7.7030    8.7731 C.cat       1 A02       0.2882
     52 NAB        17.0687    7.8578   10.0349 N.pl3       1 A02      -0.2849
     53 NAE        17.4047    6.6006    8.3108 N.pl3       1 A02      -0.2849
     54 CCD        16.4964   13.3161    4.6134 C.2         1 A02       0.2039
     55 OAM        16.3164   13.3050    3.3936 O.2         1 A02      -0.3944
     56 N          15.9875   14.2956    5.3484 N.am        1 A02      -0.2637
     57 CA         15.2546   15.4395    4.8801 C.3         1 A02       0.1307
     58 CB         15.9009   16.7324    5.4593 C.3         1 A02      -0.0092
     59 CG         17.4484   16.6499    5.6196 C.3         1 A02      -0.0156
     60 CD         18.0404   17.7674    6.5183 C.3         1 A02       0.0627
     61 NE         17.6463   17.6306    7.8563 N.pl3       1 A02      -0.2723
     62 CZ         17.8810   18.4501    8.8100 C.cat       1 A02       0.2882
     63 NH1        18.5394   19.5465    8.7085 N.pl3       1 A02      -0.2849
     64 NH2        17.4077   18.1847    9.9721 N.pl3       1 A02      -0.2849
     65 C          13.8582   15.3035    5.2729 C.2         1 A02       0.1992
     66 O          12.9658   15.3850    4.4381 O.2         1 A02      -0.3947
     67 NAF        13.5131   15.0665    6.5252 N.am        1 A02      -0.2990
     68 H1         10.2107    4.0467   19.4467 H           1 A02       0.0996
     69 H2          7.4177    5.9576   15.4066 H           1 A02       0.1820
     70 H3          7.2490    6.4622   16.9986 H           1 A02       0.1820
     71 H4         10.1827    2.8188   13.1473 H           1 A02       0.1349
     72 H5         13.9620   -1.1661   14.5324 H           1 A02       0.2102
     73 H6         11.6226   -0.8011   14.7202 H           1 A02       0.2101
     74 H7         14.2316    0.5572   13.2611 H           1 A02       0.0673
     75 H8         12.0596    1.4900   13.1032 H           1 A02       0.0678
     76 H9         14.9866    1.9311   15.5172 H           1 A02       0.0869
     77 H10        11.5650    1.0030   16.0587 H           1 A02       0.0998
     78 H11        12.6761    4.3231    7.8518 H           1 A02       0.0502
     79 H12        13.9191    5.4941    7.4788 H           1 A02       0.0502
     80 H13        15.3315    3.8715    9.2427 H           1 A02       0.0290
     81 H14        13.6913    3.5353    9.7910 H           1 A02       0.0290
     82 H15        13.3776    6.0938   10.0201 H           1 A02       0.0267
     83 H16        15.0883    6.2457    9.6308 H           1 A02       0.0267
     84 H17        15.1723    6.3226   11.9462 H           1 A02       0.0285
     85 H18        15.5186    4.6498   11.6376 H           1 A02       0.0285
     86 H19        12.6465    4.8210   11.9131 H           1 A02       0.0520
     87 H20        13.2633    5.9532   13.0851 H           1 A02       0.0520
     88 H21        12.6756    3.9147   13.9841 H           1 A02       0.1851
     89 H22        16.0935    4.4944    6.8923 H           1 A02       0.1883
     90 H23        15.6029    2.5116    4.7812 H           1 A02       0.0800
     91 H24        18.2351    2.4993    4.7076 H           1 A02       0.0312
     92 H25        17.3387    1.4034    5.7210 H           1 A02       0.0312
     93 H26        18.2822    3.9964    6.9721 H           1 A02       0.0269
     94 H27        19.4822    2.7608    6.6196 H           1 A02       0.0269
     95 H28        18.4550    1.1531    8.0861 H           1 A02       0.0317
     96 H29        16.9729    2.0843    8.1879 H           1 A02       0.0317
     97 H30        17.7287    2.9611   10.1319 H           1 A02       0.0813
     98 H31        18.9137    3.8816    9.2091 H           1 A02       0.0813
     99 H32        19.8703    2.6529   10.9488 H           1 A02       0.1994
    100 H33        20.4509    2.0656    9.4917 H           1 A02       0.1994
    101 H34        19.3057    1.1991   10.3500 H           1 A02       0.1994
    102 H35        21.2655   11.1840    3.7031 H           1 A02       0.0502
    103 H36        19.9154   10.9428    2.6032 H           1 A02       0.0502
    104 H37        20.7323    8.8879    4.7412 H           1 A02       0.0290
    105 H38        21.3480    8.8585    3.0988 H           1 A02       0.0290
    106 H39        19.4222    8.0195    2.1827 H           1 A02       0.0267
    107 H40        18.3648    8.9949    3.1888 H           1 A02       0.0267
    108 H41        18.8400    7.4328    5.1407 H           1 A02       0.0285
    109 H42        19.7216    6.3851    4.0119 H           1 A02       0.0285
    110 H43        17.6733    6.0668    2.6598 H           1 A02       0.0520
    111 H44        16.7580    7.1626    3.7258 H           1 A02       0.0520
    112 H45        17.7384    5.3409    5.4240 H           1 A02       0.1851
    113 H46        17.9495   11.6533    3.3933 H           1 A02       0.1883
    114 H47        17.7631   12.6734    6.1024 H           1 A02       0.0800
    115 H48        15.4118   11.0204    5.1685 H           1 A02       0.0313
    116 H49        15.9509   11.4188    6.8057 H           1 A02       0.0313
    117 H50        17.9222    9.7585    6.3782 H           1 A02       0.0301
    118 H51        17.0342    9.3073    4.9224 H           1 A02       0.0301
    119 H52        16.2471    7.6484    6.2836 H           1 A02       0.0689
    120 H53        15.0168    8.8560    6.6195 H           1 A02       0.0689
    121 H54        16.1070    9.3886    8.5840 H           1 A02       0.2642
    122 H55        17.4595    7.1807   10.5537 H           1 A02       0.2615
    123 H56        16.7500    8.6285   10.4596 H           1 A02       0.2615
    124 H57        17.3667    6.4137    7.3984 H           1 A02       0.2615
    125 H58        17.7973    5.9822    8.8968 H           1 A02       0.2615
    126 H59        16.1487   14.2616    6.3051 H           1 A02       0.1883
    127 H60        15.3120   15.5257    3.7848 H           1 A02       0.0800
    128 H61        15.4610   16.9390    6.4375 H           1 A02       0.0313
    129 H62        15.6598   17.5790    4.8064 H           1 A02       0.0313
    130 H63        17.9086   16.7164    4.6270 H           1 A02       0.0301
    131 H64        17.7221   15.6807    6.0503 H           1 A02       0.0301
    132 H65        17.7163   18.7371    6.1292 H           1 A02       0.0689
    133 H66        19.1317   17.7163    6.4601 H           1 A02       0.0689
    134 H67        17.1373   16.8710    8.0754 H           1 A02       0.2642
    135 H68        18.6301   20.0843    9.4643 H           1 A02       0.2615
    136 H69        18.8923   19.8152    7.8883 H           1 A02       0.2615
    137 H70        16.9147   17.3992   10.1179 H           1 A02       0.2615
    138 H71        17.5677   18.7848   10.6743 H           1 A02       0.2615
    139 H72        12.5710   14.9654    6.7504 H           1 A02       0.1815
    140 H73        14.2129   14.9880    7.2033 H           1 A02       0.1815
@<TRIPOS>BOND
     1     2     1  ar
     2     6     1  ar
     3     3     2  ar
     4     4     3  ar
     5     4     5  ar
     6    10     4   1
     7     5     6  ar
     8     8     5   1
     9     6     7   1
    10     9     8   2
    11    10     9   1
    12    19    10   1
    13    15    11   2
    14    16    12   1
    15    17    13   1
    16    18    14   1
    17    14    19   1
    18    15    18   1
    19    27    15  am
    20    16    17   1
    21    18    16   1
    22    17    19   1
    23    20    21   2
    24    20    22   1
    25    28    20  am
    26    22    23   1
    27    23    24   1
    28    24    25   1
    29    25    26   1
    30    26    27   1
    31    29    28   1
    32    30    29   1
    33    29    32   1
    34    30    31   2
    35    44    30  am
    36    32    33   1
    37    33    34   1
    38    34    35   1
    39    35    36   1
    40    37    38   2
    41    39    37   1
    42    37    45  am
    43    40    39   1
    44    41    40   1
    45    42    41   1
    46    43    42   1
    47    43    44   1
    48    45    46   1
    49    46    47   1
    50    46    54   1
    51    47    48   1
    52    48    49   1
    53    49    50   1
    54    50    51  ar
    55    51    52  ar
    56    51    53  ar
    57    54    55   2
    58    54    56  am
    59    56    57   1
    60    57    58   1
    61    57    65   1
    62    58    59   1
    63    59    60   1
    64    60    61   1
    65    61    62  ar
    66    62    63  ar
    67    62    64  ar
    68    65    66   2
    69    65    67  am
    70     2    68   1
    71     7    69   1
    72     7    70   1
    73     9    71   1
    74    12    72   1
    75    13    73   1
    76    16    74   1
    77    17    75   1
    78    18    76   1
    79    19    77   1
    80    22    78   1
    81    22    79   1
    82    23    80   1
    83    23    81   1
    84    24    82   1
    85    24    83   1
    86    25    84   1
    87    25    85   1
    88    26    86   1
    89    26    87   1
    90    27    88   1
    91    28    89   1
    92    29    90   1
    93    32    91   1
    94    32    92   1
    95    33    93   1
    96    33    94   1
    97    34    95   1
    98    34    96   1
    99    35    97   1
   100    35    98   1
   101    36    99   1
   102    36   100   1
   103    36   101   1
   104    39   102   1
   105    39   103   1
   106    40   104   1
   107    40   105   1
   108    41   106   1
   109    41   107   1
   110    42   108   1
   111    42   109   1
   112    43   110   1
   113    43   111   1
   114    44   112   1
   115    45   113   1
   116    46   114   1
   117    47   115   1
   118    47   116   1
   119    48   117   1
   120    48   118   1
   121    49   119   1
   122    49   120   1
   123    50   121   1
   124    52   122   1
   125    52   123   1
   126    53   124   1
   127    53   125   1
   128    56   126   1
   129    57   127   1
   130    58   128   1
   131    58   129   1
   132    59   130   1
   133    59   131   1
   134    60   132   1
   135    60   133   1
   136    61   134   1
   137    63   135   1
   138    63   136   1
   139    64   137   1
   140    64   138   1
   141    67   139   1
   142    67   140   1
@<TRIPOS>SUBSTRUCTURE
     1  A02      2

