@<TRIPOS>MOLECULE
3ag9_ligand_025
   140   142
SMALL
GAST_HUCK
****
This file was generated by PARSER (from files_GN.cpp)

@<TRIPOS>ATOM
      1 N1         17.5988    2.5188    4.8276 N.ar        1 A02      -0.2698
      2 C2         16.9164    1.7974    5.7596 C.ar        1 A02       0.0533
      3 N3         15.6793    2.1881    6.1611 N.ar        1 A02      -0.2714
      4 C4         15.1217    3.3158    5.6414 C.ar        1 A02       0.1613
      5 C5         15.8088    4.0764    4.7006 C.ar        1 A02       0.1045
      6 C6         17.0862    3.6617    4.2815 C.ar        1 A02       0.1298
      7 N6         17.7742    4.3360    3.3568 N.pl3       1 A02      -0.3152
      8 N7         15.0470    5.1169    4.3489 N.2         1 A02      -0.2958
      9 C8         13.9052    5.0037    5.0513 C.2         1 A02       0.1123
     10 N9         13.9247    3.8985    5.8349 N.pl3       1 A02      -0.1918
     11 OAL        12.4339    3.2477   11.2274 O.2         1 A02      -0.3941
     12 OAN        12.3580    0.5274    8.8380 O.3         1 A02      -0.3840
     13 OAO        11.3659    1.5331    6.5143 O.3         1 A02      -0.3834
     14 OBV        13.0841    3.9733    8.0185 O.3         1 A02      -0.3181
     15 CCC        13.1908    3.2309   10.2646 C.2         1 A02       0.2080
     16 CCK        13.0493    1.6467    8.2892 C.3         1 A02       0.1295
     17 CCL        12.7093    1.9180    6.8132 C.3         1 A02       0.1408
     18 CCM        12.6340    2.9775    8.9444 C.3         1 A02       0.1788
     19 CCN        12.8579    3.4628    6.6953 C.3         1 A02       0.2035
     20 CBZ        16.7437    7.3678    7.5745 C.2         1 A02       0.1782
     21 OAI        16.5556    6.8199    6.4926 O.2         1 A02      -0.3969
     22 CBG        15.6270    7.5355    8.4851 C.3         1 A02       0.0374
     23 CAX        15.3758    6.2907    9.3963 C.3         1 A02      -0.0360
     24 CAU        15.3289    6.6416   10.9128 C.3         1 A02      -0.0492
     25 CAW        14.7152    5.5664   11.8522 C.3         1 A02      -0.0326
     26 CBD        15.1036    4.0870   11.5670 C.3         1 A02       0.0310
     27 NBR        14.4729    3.5702   10.3883 N.am        1 A02      -0.2847
     28 NBS        17.9604    7.7238    7.9637 N.am        1 A02      -0.2656
     29 CCI        19.1814    7.5933    7.2174 C.3         1 A02       0.1308
     30 CCB        19.2265    8.5916    6.1486 C.2         1 A02       0.2016
     31 OAK        19.3497    9.7743    6.4418 O.2         1 A02      -0.3945
     32 CBJ        20.4195    7.7294    8.1583 C.3         1 A02      -0.0122
     33 CAZ        20.6903    6.4896    9.0571 C.3         1 A02      -0.0440
     34 CAS        20.7752    5.1468    8.2717 C.3         1 A02      -0.0124
     35 CAR        21.3367    3.9667    9.1034 C.3         1 A02      -0.0354
     36 NAC        20.2683    3.1199    9.6413 N.4         1 A02       0.2185
     37 CCA        15.3733   11.7590    2.9369 C.2         1 A02       0.1782
     38 OAJ        14.5372   12.2542    2.1864 O.2         1 A02      -0.3969
     39 CBH        16.2494   10.7163    2.4254 C.3         1 A02       0.0374
     40 CAY        16.1180    9.3969    3.2422 C.3         1 A02      -0.0360
     41 CAT        16.9402    8.2092    2.6637 C.3         1 A02      -0.0492
     42 CAV        18.4758    8.4171    2.5154 C.3         1 A02      -0.0326
     43 CBC        19.1935    9.0509    3.7367 C.3         1 A02       0.0310
     44 NBQ        19.1130    8.2017    4.8825 N.am        1 A02      -0.2851
     45 NBT        15.5483   12.1763    4.1881 N.am        1 A02      -0.2656
     46 CCJ        14.8003   13.1322    4.9627 C.3         1 A02       0.1310
     47 CBK        13.3719   12.6926    5.4175 C.3         1 A02      -0.0092
     48 CBB        12.5250   11.8178    4.4490 C.3         1 A02      -0.0156
     49 CBF        11.2173   11.2828    5.0927 C.3         1 A02       0.0627
     50 NBP        11.5064   10.5898    6.2784 N.pl3       1 A02      -0.2723
     51 CBX        11.0944   10.8437    7.4677 C.cat       1 A02       0.2882
     52 NAB        10.2787   11.7765    7.7769 N.pl3       1 A02      -0.2849
     53 NAE        11.5366   10.1261    8.4271 N.pl3       1 A02      -0.2849
     54 CCD        14.8613   14.4895    4.4201 C.2         1 A02       0.2039
     55 OAM        14.5273   14.6989    3.2620 O.2         1 A02      -0.3944
     56 N          15.2381   15.4878    5.2172 N.am        1 A02      -0.2637
     57 CA         15.5216   16.8423    4.8333 C.3         1 A02       0.1307
     58 CB         16.5256   17.4337    5.8713 C.3         1 A02      -0.0092
     59 CG         17.8577   16.6268    5.9973 C.3         1 A02      -0.0156
     60 CD         18.6899   17.0103    7.2441 C.3         1 A02       0.0627
     61 NE         17.8456   17.2529    8.3357 N.pl3       1 A02      -0.2723
     62 CZ         17.5533   18.3719    8.8859 C.cat       1 A02       0.2882
     63 NH1        18.0166   19.5155    8.5536 N.pl3       1 A02      -0.2849
     64 NH2        16.7268   18.3503    9.8625 N.pl3       1 A02      -0.2849
     65 C          14.3363   17.6836    4.6861 C.2         1 A02       0.1992
     66 O          14.3823   18.8506    5.0645 O.2         1 A02      -0.3947
     67 NAF        13.1983   17.2723    4.1724 N.am        1 A02      -0.2990
     68 H1         17.3320    0.9485    6.1475 H           1 A02       0.0996
     69 H2         17.4002    5.1425    2.9630 H           1 A02       0.1820
     70 H3         18.6501    4.0265    3.0710 H           1 A02       0.1820
     71 H4         13.1260    5.6567    4.9742 H           1 A02       0.1349
     72 H5         12.7290   -0.2553    8.3773 H           1 A02       0.2102
     73 H6         11.4456    0.7230    5.9662 H           1 A02       0.2101
     74 H7         14.1237    1.4794    8.3959 H           1 A02       0.0673
     75 H8         13.3812    1.3777    6.1397 H           1 A02       0.0678
     76 H9         11.5367    3.0189    8.9977 H           1 A02       0.0869
     77 H10        11.9084    3.8929    6.3506 H           1 A02       0.0998
     78 H11        14.7312    7.7553    7.8997 H           1 A02       0.0502
     79 H12        15.7991    8.4306    9.0959 H           1 A02       0.0502
     80 H13        16.1624    5.5434    9.2476 H           1 A02       0.0290
     81 H14        14.4303    5.8165    9.1126 H           1 A02       0.0290
     82 H15        14.7330    7.5490   11.0460 H           1 A02       0.0267
     83 H16        16.3439    6.8719   11.2551 H           1 A02       0.0267
     84 H17        13.6263    5.6758   11.8328 H           1 A02       0.0285
     85 H18        15.0219    5.8006   12.8763 H           1 A02       0.0285
     86 H19        14.8340    3.4595   12.4209 H           1 A02       0.0520
     87 H20        16.1867    4.0187   11.4288 H           1 A02       0.0520
     88 H21        15.0258    3.5048    9.5869 H           1 A02       0.1851
     89 H22        18.0374    8.0887    8.8573 H           1 A02       0.1883
     90 H23        19.2119    6.5862    6.7907 H           1 A02       0.0800
     91 H24        20.2773    8.5982    8.8082 H           1 A02       0.0312
     92 H25        21.3172    7.9236    7.5604 H           1 A02       0.0312
     93 H26        19.9163    6.4195    9.8269 H           1 A02       0.0269
     94 H27        21.6427    6.6540    9.5675 H           1 A02       0.0269
     95 H28        21.4275    5.2880    7.4080 H           1 A02       0.0317
     96 H29        19.7874    4.8780    7.8878 H           1 A02       0.0317
     97 H30        21.9611    4.3280    9.9229 H           1 A02       0.0813
     98 H31        21.9598    3.3396    8.4624 H           1 A02       0.0813
     99 H32        20.6765    2.3425   10.1601 H           1 A02       0.1994
    100 H33        19.7096    2.7496    8.8735 H           1 A02       0.1994
    101 H34        19.6694    3.6609   10.2635 H           1 A02       0.1994
    102 H35        17.2859   11.0742    2.4643 H           1 A02       0.0502
    103 H36        16.0152   10.4921    1.3793 H           1 A02       0.0502
    104 H37        15.0649    9.0962    3.2689 H           1 A02       0.0290
    105 H38        16.4293    9.5500    4.2814 H           1 A02       0.0290
    106 H39        16.5342    7.9539    1.6783 H           1 A02       0.0267
    107 H40        16.7748    7.3433    3.3097 H           1 A02       0.0267
    108 H41        18.6629    9.0498    1.6442 H           1 A02       0.0285
    109 H42        18.9365    7.4453    2.3130 H           1 A02       0.0285
    110 H43        18.7472   10.0256    3.9542 H           1 A02       0.0520
    111 H44        20.2458    9.2119    3.4923 H           1 A02       0.0520
    112 H45        18.9700    7.2548    4.7223 H           1 A02       0.1851
    113 H46        16.2942   11.7657    4.6614 H           1 A02       0.1883
    114 H47        15.3781   13.1521    5.8952 H           1 A02       0.0800
    115 H48        12.7957   13.5844    5.6740 H           1 A02       0.0313
    116 H49        13.4895   12.1101    6.3372 H           1 A02       0.0313
    117 H50        13.1267   10.9672    4.1148 H           1 A02       0.0301
    118 H51        12.2479   12.4011    3.5690 H           1 A02       0.0301
    119 H52        10.7393   10.5725    4.4085 H           1 A02       0.0689
    120 H53        10.5160   12.1151    5.2287 H           1 A02       0.0689
    121 H54        12.1022    9.8716    6.1962 H           1 A02       0.2642
    122 H55        10.0508   11.9078    8.6720 H           1 A02       0.2615
    123 H56         9.9232   12.3450    7.1264 H           1 A02       0.2615
    124 H57        12.1476    9.4396    8.2621 H           1 A02       0.2615
    125 H58        11.2750   10.3223    9.3021 H           1 A02       0.2615
    126 H59        15.4272   15.2532    6.1459 H           1 A02       0.1883
    127 H60        16.0254   16.8056    3.8650 H           1 A02       0.0800
    128 H61        16.0416   17.4587    6.8570 H           1 A02       0.0313
    129 H62        16.7678   18.4663    5.5909 H           1 A02       0.0313
    130 H63        18.4678   16.7952    5.1074 H           1 A02       0.0301
    131 H64        17.6417   15.5573    6.0523 H           1 A02       0.0301
    132 H65        19.3405   17.8596    6.9979 H           1 A02       0.0689
    133 H66        19.3347   16.1660    7.5159 H           1 A02       0.0689
    134 H67        17.4157   16.5002    8.6905 H           1 A02       0.2642
    135 H68        17.7230   20.2744    9.0084 H           1 A02       0.2615
    136 H69        18.6229   19.6026    7.8519 H           1 A02       0.2615
    137 H70        16.3618   17.5395   10.1532 H           1 A02       0.2615
    138 H71        16.4919   19.1526   10.2733 H           1 A02       0.2615
    139 H72        12.4422   17.8771    4.1016 H           1 A02       0.1815
    140 H73        13.1066   16.3594    3.8520 H           1 A02       0.1815
@<TRIPOS>BOND
     1     2     1  ar
     2     6     1  ar
     3     3     2  ar
     4     4     3  ar
     5     4     5  ar
     6    10     4   1
     7     5     6  ar
     8     8     5   1
     9     6     7   1
    10     9     8   2
    11    10     9   1
    12    19    10   1
    13    15    11   2
    14    16    12   1
    15    17    13   1
    16    18    14   1
    17    14    19   1
    18    15    18   1
    19    27    15  am
    20    16    17   1
    21    18    16   1
    22    17    19   1
    23    20    21   2
    24    20    22   1
    25    28    20  am
    26    22    23   1
    27    23    24   1
    28    24    25   1
    29    25    26   1
    30    26    27   1
    31    29    28   1
    32    30    29   1
    33    29    32   1
    34    30    31   2
    35    44    30  am
    36    32    33   1
    37    33    34   1
    38    34    35   1
    39    35    36   1
    40    37    38   2
    41    39    37   1
    42    37    45  am
    43    40    39   1
    44    41    40   1
    45    42    41   1
    46    43    42   1
    47    43    44   1
    48    45    46   1
    49    46    47   1
    50    46    54   1
    51    47    48   1
    52    48    49   1
    53    49    50   1
    54    50    51  ar
    55    51    52  ar
    56    51    53  ar
    57    54    55   2
    58    54    56  am
    59    56    57   1
    60    57    58   1
    61    57    65   1
    62    58    59   1
    63    59    60   1
    64    60    61   1
    65    61    62  ar
    66    62    63  ar
    67    62    64  ar
    68    65    66   2
    69    65    67  am
    70     2    68   1
    71     7    69   1
    72     7    70   1
    73     9    71   1
    74    12    72   1
    75    13    73   1
    76    16    74   1
    77    17    75   1
    78    18    76   1
    79    19    77   1
    80    22    78   1
    81    22    79   1
    82    23    80   1
    83    23    81   1
    84    24    82   1
    85    24    83   1
    86    25    84   1
    87    25    85   1
    88    26    86   1
    89    26    87   1
    90    27    88   1
    91    28    89   1
    92    29    90   1
    93    32    91   1
    94    32    92   1
    95    33    93   1
    96    33    94   1
    97    34    95   1
    98    34    96   1
    99    35    97   1
   100    35    98   1
   101    36    99   1
   102    36   100   1
   103    36   101   1
   104    39   102   1
   105    39   103   1
   106    40   104   1
   107    40   105   1
   108    41   106   1
   109    41   107   1
   110    42   108   1
   111    42   109   1
   112    43   110   1
   113    43   111   1
   114    44   112   1
   115    45   113   1
   116    46   114   1
   117    47   115   1
   118    47   116   1
   119    48   117   1
   120    48   118   1
   121    49   119   1
   122    49   120   1
   123    50   121   1
   124    52   122   1
   125    52   123   1
   126    53   124   1
   127    53   125   1
   128    56   126   1
   129    57   127   1
   130    58   128   1
   131    58   129   1
   132    59   130   1
   133    59   131   1
   134    60   132   1
   135    60   133   1
   136    61   134   1
   137    63   135   1
   138    63   136   1
   139    64   137   1
   140    64   138   1
   141    67   139   1
   142    67   140   1
@<TRIPOS>SUBSTRUCTURE
     1  A02      2

