@<TRIPOS>MOLECULE
3ag9_ligand_034
   140   142
SMALL
GAST_HUCK
****
This file was generated by PARSER (from files_GN.cpp)

@<TRIPOS>ATOM
      1 N1         14.4499    1.9671   13.6074 N.ar        1 A02      -0.2698
      2 C2         13.2104    2.2726   13.1248 C.ar        1 A02       0.0533
      3 N3         12.1890    2.5410   13.9822 N.ar        1 A02      -0.2714
      4 C4         12.3997    2.4964   15.3246 C.ar        1 A02       0.1613
      5 C5         13.6577    2.1739   15.8299 C.ar        1 A02       0.1045
      6 C6         14.7090    1.9043   14.9425 C.ar        1 A02       0.1298
      7 N6         15.9313    1.5852   15.3950 N.pl3       1 A02      -0.3152
      8 N7         13.6026    2.1963   17.1666 N.2         1 A02      -0.2958
      9 C8         12.3400    2.5279   17.4836 C.2         1 A02       0.1123
     10 N9         11.5884    2.7251   16.3778 N.pl3       1 A02      -0.1918
     11 OAL        10.9834    5.3331   14.1391 O.2         1 A02      -0.3941
     12 OAN         7.4885    4.3768   16.9055 O.3         1 A02      -0.3840
     13 OAO         9.7243    4.2588   18.5692 O.3         1 A02      -0.3834
     14 OBV         9.6389    3.2459   15.0771 O.3         1 A02      -0.3181
     15 CCC         9.7668    5.4827   14.2268 C.2         1 A02       0.2080
     16 CCK         8.6940    4.9737   16.4261 C.3         1 A02       0.1295
     17 CCL         9.9205    4.4147   17.1606 C.3         1 A02       0.1408
     18 CCM         8.9740    4.5199   14.9758 C.3         1 A02       0.1788
     19 CCN        10.1986    3.0942   16.3969 C.3         1 A02       0.2035
     20 CBZ         9.9002    4.2627    8.5220 C.2         1 A02       0.1782
     21 OAI         9.8357    5.2309    7.7677 O.2         1 A02      -0.3969
     22 CBG         9.1610    4.2872    9.7727 C.3         1 A02       0.0374
     23 CAX        10.0730    4.5441   11.0094 C.3         1 A02      -0.0360
     24 CAU        10.7912    5.9301   11.0345 C.3         1 A02      -0.0492
     25 CAW         9.8898    7.1627   11.3558 C.3         1 A02      -0.0326
     26 CBD         9.7868    7.5378   12.8626 C.3         1 A02       0.0310
     27 NBR         9.1630    6.5215   13.6523 N.am        1 A02      -0.2847
     28 NBS        10.6891    3.2243    8.2491 N.am        1 A02      -0.2656
     29 CCI        11.5675    3.1114    7.1156 C.3         1 A02       0.1308
     30 CCB        12.6186    4.1272    7.1508 C.2         1 A02       0.2016
     31 OAK        13.1130    4.4357    8.2346 O.2         1 A02      -0.3945
     32 CBJ        12.1399    1.6666    6.9805 C.3         1 A02      -0.0122
     33 CAZ        12.9042    1.0950    8.2225 C.3         1 A02      -0.0440
     34 CAS        14.0700    0.1324    7.8826 C.3         1 A02      -0.0124
     35 CAR        14.8988    0.5608    6.6443 C.3         1 A02      -0.0354
     36 NAC        16.2067   -0.0974    6.6096 N.4         1 A02       0.2185
     37 CCA        18.7475    6.4628    3.7054 C.2         1 A02       0.1782
     38 OAJ        19.7689    6.0071    3.2070 O.2         1 A02      -0.3969
     39 CBH        17.4711    5.8443    3.3901 C.3         1 A02       0.0374
     40 CAY        17.2127    4.4952    4.1382 C.3         1 A02      -0.0360
     41 CAT        15.7478    4.3496    4.6392 C.3         1 A02      -0.0492
     42 CAV        15.4457    5.2292    5.8946 C.3         1 A02      -0.0326
     43 CBC        13.9926    5.7763    5.9435 C.3         1 A02       0.0310
     44 NBQ        13.0023    4.7549    6.0356 N.am        1 A02      -0.2851
     45 NBT        18.7651    7.5338    4.4961 N.am        1 A02      -0.2656
     46 CCJ        19.8741    8.4038    4.7841 C.3         1 A02       0.1310
     47 CBK        20.0914    8.5365    6.3285 C.3         1 A02      -0.0092
     48 CBB        20.5279    7.2445    7.0874 C.3         1 A02      -0.0156
     49 CBF        19.4177    6.1680    7.2607 C.3         1 A02       0.0627
     50 NBP        19.6056    5.3281    8.3645 N.pl3       1 A02      -0.2723
     51 CBX        20.4839    4.4074    8.5197 C.cat       1 A02       0.2882
     52 NAB        21.3641    4.0822    7.6535 N.pl3       1 A02      -0.2849
     53 NAE        20.4647    3.7686    9.6268 N.pl3       1 A02      -0.2849
     54 CCD        19.6078    9.7234    4.2031 C.2         1 A02       0.2039
     55 OAM        18.4489   10.1054    4.0585 O.2         1 A02      -0.3944
     56 N          20.6362   10.5017    3.8745 N.am        1 A02      -0.2637
     57 CA         20.6523   11.8327    3.3120 C.3         1 A02       0.1307
     58 CB         20.2058   12.9826    4.2753 C.3         1 A02      -0.0092
     59 CG         18.7027   13.0187    4.6849 C.3         1 A02      -0.0156
     60 CD         18.1459   14.4601    4.8671 C.3         1 A02       0.0627
     61 NE         16.9046   14.4804    5.5207 N.pl3       1 A02      -0.2723
     62 CZ         15.7674   14.0789    5.0856 C.cat       1 A02       0.2882
     63 NH1        15.5590   13.5824    3.9253 N.pl3       1 A02      -0.2849
     64 NH2        14.7670   14.1885    5.8708 N.pl3       1 A02      -0.2849
     65 C          20.0908   11.9755    1.9712 C.2         1 A02       0.1992
     66 O          20.5080   12.8639    1.2264 O.2         1 A02      -0.3947
     67 NAF        19.1338   11.2149    1.4737 N.am        1 A02      -0.2990
     68 H1         13.0532    2.3064   12.1151 H           1 A02       0.0996
     69 H2         16.0957    1.5423   16.3514 H           1 A02       0.1820
     70 H3         16.6507    1.3955   14.7724 H           1 A02       0.1820
     71 H4         11.9984    2.6029   18.4422 H           1 A02       0.1349
     72 H5          6.7933    4.6606   16.2726 H           1 A02       0.2102
     73 H6          9.3780    3.3506   18.7124 H           1 A02       0.2101
     74 H7          8.6195    6.0623   16.5318 H           1 A02       0.0673
     75 H8         10.7641    5.0994   17.0193 H           1 A02       0.0678
     76 H9          8.0309    4.3515   14.4416 H           1 A02       0.0869
     77 H10         9.6433    2.2839   16.8792 H           1 A02       0.0998
     78 H11         8.6499    3.3239    9.8982 H           1 A02       0.0502
     79 H12         8.3805    5.0538    9.7360 H           1 A02       0.0502
     80 H13        10.8419    3.7626   11.0415 H           1 A02       0.0290
     81 H14         9.4573    4.4332   11.9078 H           1 A02       0.0290
     82 H15        11.2646    6.0934   10.0622 H           1 A02       0.0267
     83 H16        11.6070    5.8812   11.7603 H           1 A02       0.0267
     84 H17         8.8820    7.0184   10.9515 H           1 A02       0.0285
     85 H18        10.3163    8.0313   10.8426 H           1 A02       0.0285
     86 H19         9.1650    8.4361   12.9502 H           1 A02       0.0520
     87 H20        10.7782    7.7942   13.2505 H           1 A02       0.0520
     88 H21         8.1976    6.5965   13.7761 H           1 A02       0.1851
     89 H22        10.6745    2.4752    8.8748 H           1 A02       0.1883
     90 H23        10.9576    3.2652    6.2168 H           1 A02       0.0800
     91 H24        12.7877    1.6628    6.1015 H           1 A02       0.0312
     92 H25        11.3089    0.9823    6.7645 H           1 A02       0.0312
     93 H26        12.1879    0.5456    8.8445 H           1 A02       0.0269
     94 H27        13.3172    1.8928    8.8496 H           1 A02       0.0269
     95 H28        13.6791   -0.8746    7.7143 H           1 A02       0.0317
     96 H29        14.7394    0.0885    8.7450 H           1 A02       0.0317
     97 H30        15.0637    1.6410    6.6502 H           1 A02       0.0813
     98 H31        14.3891    0.2923    5.7192 H           1 A02       0.0813
     99 H32        16.7001    0.1930    5.7612 H           1 A02       0.1994
    100 H33        16.0833   -1.1126    6.5933 H           1 A02       0.1994
    101 H34        16.7511    0.1721    7.4294 H           1 A02       0.1994
    102 H35        17.4225    5.6724    2.3094 H           1 A02       0.0502
    103 H36        16.6662    6.5537    3.6106 H           1 A02       0.0502
    104 H37        17.8843    4.3793    4.9947 H           1 A02       0.0290
    105 H38        17.4317    3.6732    3.4472 H           1 A02       0.0290
    106 H39        15.5653    3.2991    4.8948 H           1 A02       0.0267
    107 H40        15.0716    4.6111    3.8165 H           1 A02       0.0267
    108 H41        16.1119    6.0902    5.9214 H           1 A02       0.0285
    109 H42        15.6523    4.6399    6.7904 H           1 A02       0.0285
    110 H43        13.8028    6.3567    5.0308 H           1 A02       0.0520
    111 H44        13.9007    6.4689    6.7932 H           1 A02       0.0520
    112 H45        12.5513    4.5035    5.2051 H           1 A02       0.1851
    113 H46        17.9109    7.8075    4.8763 H           1 A02       0.1883
    114 H47        20.8016    8.0039    4.3456 H           1 A02       0.0800
    115 H48        19.1767    8.9258    6.7918 H           1 A02       0.0313
    116 H49        20.8858    9.2775    6.5032 H           1 A02       0.0313
    117 H50        20.8627    7.5562    8.0856 H           1 A02       0.0301
    118 H51        21.3913    6.8056    6.5739 H           1 A02       0.0301
    119 H52        19.3473    5.5666    6.3532 H           1 A02       0.0689
    120 H53        18.4568    6.6703    7.4033 H           1 A02       0.0689
    121 H54        19.0050    5.4422    9.0713 H           1 A02       0.2642
    122 H55        21.9717    3.3949    7.8382 H           1 A02       0.2615
    123 H56        21.4058    4.5264    6.8326 H           1 A02       0.2615
    124 H57        19.8396    3.9956   10.2848 H           1 A02       0.2615
    125 H58        21.0791    3.0824    9.7851 H           1 A02       0.2615
    126 H59        21.5169   10.1253    4.0373 H           1 A02       0.1883
    127 H60        21.7289   11.9994    3.1736 H           1 A02       0.0800
    128 H61        20.4564   13.9399    3.7973 H           1 A02       0.0313
    129 H62        20.8036   12.9142    5.1904 H           1 A02       0.0313
    130 H63        18.5842   12.4935    5.6385 H           1 A02       0.0301
    131 H64        18.1022   12.5122    3.9216 H           1 A02       0.0301
    132 H65        18.0764   14.9713    3.8992 H           1 A02       0.0689
    133 H66        18.8415   15.0225    5.4965 H           1 A02       0.0689
    134 H67        16.8932   14.8537    6.3806 H           1 A02       0.2642
    135 H68        14.6995   13.3113    3.6793 H           1 A02       0.2615
    136 H69        16.2609   13.4922    3.3168 H           1 A02       0.2615
    137 H70        14.8875   14.5423    6.7266 H           1 A02       0.2615
    138 H71        13.9178   13.9071    5.6015 H           1 A02       0.2615
    139 H72        18.8033   11.3804    0.5780 H           1 A02       0.1815
    140 H73        18.7495   10.4923    1.9950 H           1 A02       0.1815
@<TRIPOS>BOND
     1     2     1  ar
     2     6     1  ar
     3     3     2  ar
     4     4     3  ar
     5     4     5  ar
     6    10     4   1
     7     5     6  ar
     8     8     5   1
     9     6     7   1
    10     9     8   2
    11    10     9   1
    12    19    10   1
    13    15    11   2
    14    16    12   1
    15    17    13   1
    16    18    14   1
    17    14    19   1
    18    15    18   1
    19    27    15  am
    20    16    17   1
    21    18    16   1
    22    17    19   1
    23    20    21   2
    24    20    22   1
    25    28    20  am
    26    22    23   1
    27    23    24   1
    28    24    25   1
    29    25    26   1
    30    26    27   1
    31    29    28   1
    32    30    29   1
    33    29    32   1
    34    30    31   2
    35    44    30  am
    36    32    33   1
    37    33    34   1
    38    34    35   1
    39    35    36   1
    40    37    38   2
    41    39    37   1
    42    37    45  am
    43    40    39   1
    44    41    40   1
    45    42    41   1
    46    43    42   1
    47    43    44   1
    48    45    46   1
    49    46    47   1
    50    46    54   1
    51    47    48   1
    52    48    49   1
    53    49    50   1
    54    50    51  ar
    55    51    52  ar
    56    51    53  ar
    57    54    55   2
    58    54    56  am
    59    56    57   1
    60    57    58   1
    61    57    65   1
    62    58    59   1
    63    59    60   1
    64    60    61   1
    65    61    62  ar
    66    62    63  ar
    67    62    64  ar
    68    65    66   2
    69    65    67  am
    70     2    68   1
    71     7    69   1
    72     7    70   1
    73     9    71   1
    74    12    72   1
    75    13    73   1
    76    16    74   1
    77    17    75   1
    78    18    76   1
    79    19    77   1
    80    22    78   1
    81    22    79   1
    82    23    80   1
    83    23    81   1
    84    24    82   1
    85    24    83   1
    86    25    84   1
    87    25    85   1
    88    26    86   1
    89    26    87   1
    90    27    88   1
    91    28    89   1
    92    29    90   1
    93    32    91   1
    94    32    92   1
    95    33    93   1
    96    33    94   1
    97    34    95   1
    98    34    96   1
    99    35    97   1
   100    35    98   1
   101    36    99   1
   102    36   100   1
   103    36   101   1
   104    39   102   1
   105    39   103   1
   106    40   104   1
   107    40   105   1
   108    41   106   1
   109    41   107   1
   110    42   108   1
   111    42   109   1
   112    43   110   1
   113    43   111   1
   114    44   112   1
   115    45   113   1
   116    46   114   1
   117    47   115   1
   118    47   116   1
   119    48   117   1
   120    48   118   1
   121    49   119   1
   122    49   120   1
   123    50   121   1
   124    52   122   1
   125    52   123   1
   126    53   124   1
   127    53   125   1
   128    56   126   1
   129    57   127   1
   130    58   128   1
   131    58   129   1
   132    59   130   1
   133    59   131   1
   134    60   132   1
   135    60   133   1
   136    61   134   1
   137    63   135   1
   138    63   136   1
   139    64   137   1
   140    64   138   1
   141    67   139   1
   142    67   140   1
@<TRIPOS>SUBSTRUCTURE
     1  A02      2

