@<TRIPOS>MOLECULE
3ag9_ligand_086
   140   142
SMALL
GAST_HUCK
****
This file was generated by PARSER (from files_GN.cpp)

@<TRIPOS>ATOM
      1 N1         14.4828    1.9063   13.8166 N.ar        1 A02      -0.2698
      2 C2         13.2508    2.2054   13.3199 C.ar        1 A02       0.0533
      3 N3         12.2176    2.4729   14.1646 N.ar        1 A02      -0.2714
      4 C4         12.4130    2.4278   15.5108 C.ar        1 A02       0.1613
      5 C5         13.6647    2.1015   16.0287 C.ar        1 A02       0.1045
      6 C6         14.7284    1.8393   15.1526 C.ar        1 A02       0.1298
      7 N6         15.9527    1.5324   15.6063 N.pl3       1 A02      -0.3152
      8 N7         13.5932    2.1157   17.3654 N.2         1 A02      -0.2958
      9 C8         12.3260    2.4408   17.6703 C.2         1 A02       0.1123
     10 N9         11.5914    2.6486   16.5552 N.pl3       1 A02      -0.1918
     11 OAL        11.0122    4.9901   14.0704 O.2         1 A02      -0.3941
     12 OAN         7.4720    4.3506   16.9771 O.3         1 A02      -0.3840
     13 OAO         9.6917    4.2739   18.6747 O.3         1 A02      -0.3834
     14 OBV         9.6203    3.0977   15.2455 O.3         1 A02      -0.3181
     15 CCC         9.8367    5.2874   14.2904 C.2         1 A02       0.2080
     16 CCK         8.6934    4.9039   16.4889 C.3         1 A02       0.1295
     17 CCL         9.9081    4.3703   17.2650 C.3         1 A02       0.1408
     18 CCM         8.9948    4.3822   15.0647 C.3         1 A02       0.1788
     19 CCN        10.1969    3.0162   16.5659 C.3         1 A02       0.2035
     20 CBZ         9.8034    4.2233    8.6807 C.2         1 A02       0.1782
     21 OAI         9.6386    5.2308    8.0011 O.2         1 A02      -0.3969
     22 CBG         9.1650    4.1294    9.9727 C.3         1 A02       0.0374
     23 CAX        10.1599    4.3828   11.1467 C.3         1 A02      -0.0360
     24 CAU        10.9075    5.7529   11.1247 C.3         1 A02      -0.0492
     25 CAW        10.0467    7.0030   11.4832 C.3         1 A02      -0.0326
     26 CBD        10.0043    7.3710   12.9913 C.3         1 A02       0.0310
     27 NBR         9.3182    6.4100   13.7982 N.am        1 A02      -0.2847
     28 NBS        10.6222    3.2448    8.2874 N.am        1 A02      -0.2656
     29 CCI        11.4608    3.2797    7.1282 C.3         1 A02       0.1308
     30 CCB        12.3260    4.4542    7.1701 C.2         1 A02       0.2016
     31 OAK        13.0966    4.6079    8.1141 O.2         1 A02      -0.3945
     32 CBJ        12.2403    1.9400    6.9080 C.3         1 A02      -0.0122
     33 CAZ        12.9629    1.3432    8.1449 C.3         1 A02      -0.0440
     34 CAS        14.0218    0.2658    7.7910 C.3         1 A02      -0.0124
     35 CAR        14.9386    0.6653    6.6058 C.3         1 A02      -0.0354
     36 NAC        16.1457   -0.1603    6.5450 N.4         1 A02       0.2185
     37 CCA        15.6272    6.3830    2.5618 C.2         1 A02       0.1782
     38 OAJ        15.9918    5.2654    2.9155 O.2         1 A02      -0.3969
     39 CBH        14.5222    6.4976    1.6308 C.3         1 A02       0.0374
     40 CAY        13.1516    6.1022    2.2570 C.3         1 A02      -0.0360
     41 CAT        12.7262    6.8713    3.5393 C.3         1 A02      -0.0492
     42 CAV        13.6652    6.6925    4.7779 C.3         1 A02      -0.0326
     43 CBC        12.9385    6.6223    6.1427 C.3         1 A02       0.0310
     44 NBQ        12.2089    5.3941    6.2365 N.am        1 A02      -0.2851
     45 NBT        16.1973    7.4858    3.0595 N.am        1 A02      -0.2656
     46 CCJ        17.0453    7.5905    4.2163 C.3         1 A02       0.1310
     47 CBK        17.7186    9.0047    4.2119 C.3         1 A02      -0.0092
     48 CBB        18.6672    9.3366    5.4066 C.3         1 A02      -0.0156
     49 CBF        20.0877    8.6981    5.3181 C.3         1 A02       0.0627
     50 NBP        21.0533    9.3702    6.0738 N.pl3       1 A02      -0.2723
     51 CBX        21.2134    9.3556    7.3458 C.cat       1 A02       0.2882
     52 NAB        20.4867    8.7121    8.1806 N.pl3       1 A02      -0.2849
     53 NAE        22.1839   10.0407    7.8132 N.pl3       1 A02      -0.2849
     54 CCD        18.0063    6.5033    4.3421 C.2         1 A02       0.2039
     55 OAM        18.7012    6.1950    3.3717 O.2         1 A02      -0.3944
     56 N          18.1445    5.8836    5.5126 N.am        1 A02      -0.2637
     57 CA         19.1338    4.9137    5.8743 C.3         1 A02       0.1307
     58 CB         19.2590    3.7112    4.8668 C.3         1 A02      -0.0092
     59 CG         20.6755    3.5560    4.2452 C.3         1 A02      -0.0156
     60 CD         21.7668    3.0517    5.2415 C.3         1 A02       0.0627
     61 NE         22.9850    3.7446    5.1608 N.pl3       1 A02      -0.2723
     62 CZ         23.7920    3.8161    4.1684 C.cat       1 A02       0.2882
     63 NH1        23.6202    3.2334    3.0457 N.pl3       1 A02      -0.2849
     64 NH2        24.8456    4.5230    4.3066 N.pl3       1 A02      -0.2849
     65 C          18.8219    4.5022    7.2358 C.2         1 A02       0.1992
     66 O          17.9739    3.6421    7.4686 O.2         1 A02      -0.3947
     67 NAF        19.3368    5.1254    8.2698 N.am        1 A02      -0.2990
     68 H1         13.1046    2.2375   12.3100 H           1 A02       0.0996
     69 H2         16.1175    1.4889   16.5600 H           1 A02       0.1820
     70 H3         16.6733    1.3470   14.9828 H           1 A02       0.1820
     71 H4         11.9745    2.5173   18.6257 H           1 A02       0.1349
     72 H5          6.8047    4.5507   16.2866 H           1 A02       0.2102
     73 H6          9.3312    3.3774   18.8439 H           1 A02       0.2101
     74 H7          8.6318    5.9969   16.5415 H           1 A02       0.0673
     75 H8         10.7527    5.0495   17.1074 H           1 A02       0.0678
     76 H9          8.0659    4.2089   14.5142 H           1 A02       0.0869
     77 H10         9.6513    2.2311   17.0990 H           1 A02       0.0998
     78 H11         8.7340    3.1267   10.0802 H           1 A02       0.0502
     79 H12         8.3307    4.8370   10.0419 H           1 A02       0.0502
     80 H13        10.9173    3.5902   11.1345 H           1 A02       0.0290
     81 H14         9.6041    4.2816   12.0808 H           1 A02       0.0290
     82 H15        11.3307    5.9002   10.1246 H           1 A02       0.0267
     83 H16        11.7552    5.6951   11.8168 H           1 A02       0.0267
     84 H17         9.0281    6.8802   11.1128 H           1 A02       0.0285
     85 H18        10.4764    7.8615   10.9579 H           1 A02       0.0285
     86 H19         9.4717    8.3194   13.0949 H           1 A02       0.0520
     87 H20        11.0248    7.5429   13.3556 H           1 A02       0.0520
     88 H21         8.3786    6.5861   13.9844 H           1 A02       0.1851
     89 H22        10.6879    2.4644    8.8651 H           1 A02       0.1883
     90 H23        10.7903    3.3627    6.2663 H           1 A02       0.0800
     91 H24        12.9782    2.1064    6.1148 H           1 A02       0.0312
     92 H25        11.5289    1.1871    6.5352 H           1 A02       0.0312
     93 H26        12.2239    0.8925    8.8063 H           1 A02       0.0269
     94 H27        13.4717    2.1245    8.7115 H           1 A02       0.0269
     95 H28        13.5153   -0.6735    7.5593 H           1 A02       0.0317
     96 H29        14.6383    0.0930    8.6813 H           1 A02       0.0317
     97 H30        15.2524    1.7070    6.7008 H           1 A02       0.0813
     98 H31        14.4101    0.5466    5.6577 H           1 A02       0.0813
     99 H32        16.7078    0.1315    5.7453 H           1 A02       0.1994
    100 H33        15.8983   -1.1451    6.4409 H           1 A02       0.1994
    101 H34        16.6930   -0.0352    7.4030 H           1 A02       0.1994
    102 H35        14.7244    5.8341    0.7831 H           1 A02       0.0502
    103 H36        14.4383    7.5195    1.2346 H           1 A02       0.0502
    104 H37        13.1405    5.0273    2.4653 H           1 A02       0.0290
    105 H38        12.3864    6.2821    1.4937 H           1 A02       0.0290
    106 H39        11.7177    6.5277    3.7916 H           1 A02       0.0267
    107 H40        12.6454    7.9376    3.3032 H           1 A02       0.0267
    108 H41        14.3574    7.5377    4.8065 H           1 A02       0.0285
    109 H42        14.2568    5.7777    4.6780 H           1 A02       0.0285
    110 H43        12.2362    7.4613    6.2481 H           1 A02       0.0520
    111 H44        13.6877    6.7210    6.9359 H           1 A02       0.0520
    112 H45        11.5674    5.2233    5.5259 H           1 A02       0.1851
    113 H46        15.8732    8.3285    2.6968 H           1 A02       0.1883
    114 H47        16.3693    7.5742    5.0822 H           1 A02       0.0800
    115 H48        16.9137    9.7474    4.2324 H           1 A02       0.0313
    116 H49        18.2597    9.1447    3.2695 H           1 A02       0.0313
    117 H50        18.1825    9.0450    6.3469 H           1 A02       0.0301
    118 H51        18.7954   10.4247    5.4293 H           1 A02       0.0301
    119 H52        20.4218    8.7388    4.2752 H           1 A02       0.0689
    120 H53        20.0643    7.6484    5.6244 H           1 A02       0.0689
    121 H54        21.6772    9.8715    5.5894 H           1 A02       0.2642
    122 H55        20.6725    8.7627    9.0987 H           1 A02       0.2615
    123 H56        19.7680    8.1970    7.8811 H           1 A02       0.2615
    124 H57        22.7387   10.5159    7.2327 H           1 A02       0.2615
    125 H58        22.3279   10.0846    8.7333 H           1 A02       0.2615
    126 H59        17.5187    6.1447    6.2121 H           1 A02       0.1883
    127 H60        20.0854    5.4557    5.9065 H           1 A02       0.0800
    128 H61        18.5511    3.8634    4.0427 H           1 A02       0.0313
    129 H62        18.9960    2.7562    5.3427 H           1 A02       0.0313
    130 H63        20.9734    4.5158    3.8156 H           1 A02       0.0301
    131 H64        20.6130    2.8449    3.4147 H           1 A02       0.0301
    132 H65        21.9426    1.9825    5.0906 H           1 A02       0.0689
    133 H66        21.4206    3.1712    6.2725 H           1 A02       0.0689
    134 H67        23.2410    4.2156    5.9298 H           1 A02       0.2642
    135 H68        24.2544    3.3312    2.3615 H           1 A02       0.2615
    136 H69        22.8684    2.6987    2.8958 H           1 A02       0.2615
    137 H70        25.0155    4.9698    5.1145 H           1 A02       0.2615
    138 H71        25.4576    4.5996    3.5990 H           1 A02       0.2615
    139 H72        19.0520    4.9094    9.1734 H           1 A02       0.1815
    140 H73        19.9588    5.8625    8.1305 H           1 A02       0.1815
@<TRIPOS>BOND
     1     2     1  ar
     2     6     1  ar
     3     3     2  ar
     4     4     3  ar
     5     4     5  ar
     6    10     4   1
     7     5     6  ar
     8     8     5   1
     9     6     7   1
    10     9     8   2
    11    10     9   1
    12    19    10   1
    13    15    11   2
    14    16    12   1
    15    17    13   1
    16    18    14   1
    17    14    19   1
    18    15    18   1
    19    27    15  am
    20    16    17   1
    21    18    16   1
    22    17    19   1
    23    20    21   2
    24    20    22   1
    25    28    20  am
    26    22    23   1
    27    23    24   1
    28    24    25   1
    29    25    26   1
    30    26    27   1
    31    29    28   1
    32    30    29   1
    33    29    32   1
    34    30    31   2
    35    44    30  am
    36    32    33   1
    37    33    34   1
    38    34    35   1
    39    35    36   1
    40    37    38   2
    41    39    37   1
    42    37    45  am
    43    40    39   1
    44    41    40   1
    45    42    41   1
    46    43    42   1
    47    43    44   1
    48    45    46   1
    49    46    47   1
    50    46    54   1
    51    47    48   1
    52    48    49   1
    53    49    50   1
    54    50    51  ar
    55    51    52  ar
    56    51    53  ar
    57    54    55   2
    58    54    56  am
    59    56    57   1
    60    57    58   1
    61    57    65   1
    62    58    59   1
    63    59    60   1
    64    60    61   1
    65    61    62  ar
    66    62    63  ar
    67    62    64  ar
    68    65    66   2
    69    65    67  am
    70     2    68   1
    71     7    69   1
    72     7    70   1
    73     9    71   1
    74    12    72   1
    75    13    73   1
    76    16    74   1
    77    17    75   1
    78    18    76   1
    79    19    77   1
    80    22    78   1
    81    22    79   1
    82    23    80   1
    83    23    81   1
    84    24    82   1
    85    24    83   1
    86    25    84   1
    87    25    85   1
    88    26    86   1
    89    26    87   1
    90    27    88   1
    91    28    89   1
    92    29    90   1
    93    32    91   1
    94    32    92   1
    95    33    93   1
    96    33    94   1
    97    34    95   1
    98    34    96   1
    99    35    97   1
   100    35    98   1
   101    36    99   1
   102    36   100   1
   103    36   101   1
   104    39   102   1
   105    39   103   1
   106    40   104   1
   107    40   105   1
   108    41   106   1
   109    41   107   1
   110    42   108   1
   111    42   109   1
   112    43   110   1
   113    43   111   1
   114    44   112   1
   115    45   113   1
   116    46   114   1
   117    47   115   1
   118    47   116   1
   119    48   117   1
   120    48   118   1
   121    49   119   1
   122    49   120   1
   123    50   121   1
   124    52   122   1
   125    52   123   1
   126    53   124   1
   127    53   125   1
   128    56   126   1
   129    57   127   1
   130    58   128   1
   131    58   129   1
   132    59   130   1
   133    59   131   1
   134    60   132   1
   135    60   133   1
   136    61   134   1
   137    63   135   1
   138    63   136   1
   139    64   137   1
   140    64   138   1
   141    67   139   1
   142    67   140   1
@<TRIPOS>SUBSTRUCTURE
     1  A02      2

