@<TRIPOS>MOLECULE
3ag9_ligand_082
   140   142
SMALL
GAST_HUCK
****
This file was generated by PARSER (from files_GN.cpp)

@<TRIPOS>ATOM
      1 N1         18.1331    2.7104    5.3318 N.ar        1 A02      -0.2698
      2 C2         18.6673    3.8985    4.9290 C.ar        1 A02       0.0533
      3 N3         18.4478    5.0247    5.6620 N.ar        1 A02      -0.2714
      4 C4         17.6993    4.9702    6.7911 C.ar        1 A02       0.1613
      5 C5         17.1507    3.7607    7.2204 C.ar        1 A02       0.1045
      6 C6         17.3830    2.6015    6.4599 C.ar        1 A02       0.1298
      7 N6         16.8796    1.4083    6.8199 N.pl3       1 A02      -0.3152
      8 N7         16.4744    3.9770    8.3579 N.2         1 A02      -0.2958
      9 C8         16.5994    5.2880    8.6219 C.2         1 A02       0.1123
     10 N9         17.3413    5.9116    7.6807 N.pl3       1 A02      -0.1918
     11 OAL        19.4435    7.5499    4.2129 O.2         1 A02      -0.3941
     12 OAN        21.0020    8.8392    7.9862 O.3         1 A02      -0.3840
     13 OAO        18.6587    8.7630    9.3899 O.3         1 A02      -0.3834
     14 OBV        17.9468    7.7842    6.3517 O.3         1 A02      -0.3181
     15 CCC        19.8814    8.3421    5.0402 C.2         1 A02       0.2080
     16 CCK        20.0118    7.9165    7.5224 C.3         1 A02       0.1295
     17 CCL        18.9092    7.6308    8.5558 C.3         1 A02       0.1408
     18 CCM        19.2104    8.4731    6.3265 C.3         1 A02       0.1788
     19 CCN        17.6729    7.3114    7.6812 C.3         1 A02       0.2035
     20 CBZ        24.7504    9.7930    1.8080 C.2         1 A02       0.1782
     21 OAI        24.3140    9.4609    0.7125 O.2         1 A02      -0.3969
     22 CBG        25.4052    8.7871    2.6359 C.3         1 A02       0.0374
     23 CAX        24.6815    8.4400    3.9708 C.3         1 A02      -0.0360
     24 CAU        23.4487    7.4882    3.8776 C.3         1 A02      -0.0492
     25 CAW        22.2564    7.9439    2.9869 C.3         1 A02      -0.0326
     26 CBD        21.5352    9.2367    3.4571 C.3         1 A02       0.0310
     27 NBR        20.9033    9.1375    4.7392 N.am        1 A02      -0.2847
     28 NBS        24.7091   11.0602    2.2128 N.am        1 A02      -0.2656
     29 CCI        24.2237   12.1922    1.4723 C.3         1 A02       0.1308
     30 CCB        22.8828   12.5049    1.9555 C.2         1 A02       0.2016
     31 OAK        21.9607   12.5147    1.1504 O.2         1 A02      -0.3945
     32 CBJ        25.2274   13.3838    1.6144 C.3         1 A02      -0.0122
     33 CAZ        26.4550   13.3628    0.6544 C.3         1 A02      -0.0440
     34 CAS        27.2850   12.0484    0.5471 C.3         1 A02      -0.0124
     35 CAR        27.9776   11.5775    1.8521 C.3         1 A02      -0.0354
     36 NAC        29.2550   12.2602    2.0745 N.4         1 A02       0.2185
     37 CCA        17.9760   18.0729    2.2899 C.2         1 A02       0.1782
     38 OAJ        16.8374   18.0176    1.8439 O.2         1 A02      -0.3969
     39 CBH        18.9062   17.0095    1.9302 C.3         1 A02       0.0374
     40 CAY        19.4164   16.2175    3.1689 C.3         1 A02      -0.0360
     41 CAT        20.2191   14.9396    2.7968 C.3         1 A02      -0.0492
     42 CAV        20.8855   14.3024    4.0451 C.3         1 A02      -0.0326
     43 CBC        21.3747   12.8460    3.8693 C.3         1 A02       0.0310
     44 NBQ        22.6616   12.7249    3.2449 N.am        1 A02      -0.2851
     45 NBT        18.3695   19.0563    3.0939 N.am        1 A02      -0.2656
     46 CCJ        17.6400   20.1854    3.6061 C.3         1 A02       0.1310
     47 CBK        18.1408   20.5176    5.0504 C.3         1 A02      -0.0092
     48 CBB        18.3929   19.2912    5.9816 C.3         1 A02      -0.0156
     49 CBF        19.1470   19.6240    7.3047 C.3         1 A02       0.0627
     50 NBP        18.4148   19.3325    8.4640 N.pl3       1 A02      -0.2723
     51 CBX        17.8963   18.2162    8.8259 C.cat       1 A02       0.2882
     52 NAB        17.9746   17.1134    8.1800 N.pl3       1 A02      -0.2849
     53 NAE        17.2223   18.2200    9.9091 N.pl3       1 A02      -0.2849
     54 CCD        16.1780   20.1085    3.5445 C.2         1 A02       0.2039
     55 OAM        15.6088   19.1282    4.0130 O.2         1 A02      -0.3944
     56 N          15.4808   21.0538    2.9163 N.am        1 A02      -0.2637
     57 CA         14.0676   21.0822    2.6435 C.3         1 A02       0.1307
     58 CB         13.2032   21.2393    3.9472 C.3         1 A02      -0.0092
     59 CG         12.6736   22.6676    4.2412 C.3         1 A02      -0.0156
     60 CD         13.7250   23.8015    4.1449 C.3         1 A02       0.0627
     61 NE         14.5701   23.9334    5.2586 N.pl3       1 A02      -0.2723
     62 CZ         14.2713   24.4190    6.4104 C.cat       1 A02       0.2882
     63 NH1        13.1068   24.8001    6.7722 N.pl3       1 A02      -0.2849
     64 NH2        15.2125   24.5648    7.2672 N.pl3       1 A02      -0.2849
     65 C          13.6760   19.9591    1.7846 C.2         1 A02       0.1992
     66 O          13.2657   18.9008    2.2447 O.2         1 A02      -0.3947
     67 NAF        13.7908   20.0248    0.4713 N.am        1 A02      -0.2990
     68 H1         19.2269    3.9448    4.0796 H           1 A02       0.0996
     69 H2         16.3416    1.3313    7.6232 H           1 A02       0.1820
     70 H3         17.0588    0.6219    6.2794 H           1 A02       0.1820
     71 H4         16.1833    5.7394    9.4396 H           1 A02       0.1349
     72 H5         21.0340    8.7223    8.9606 H           1 A02       0.2102
     73 H6         19.5201    8.9637    9.8101 H           1 A02       0.2101
     74 H7         20.5020    6.9739    7.2529 H           1 A02       0.0673
     75 H8         19.1952    6.7945    9.1963 H           1 A02       0.0678
     76 H9         19.0051    9.5366    6.4924 H           1 A02       0.0869
     77 H10        16.8037    7.8725    8.0363 H           1 A02       0.0998
     78 H11        26.4004    9.1778    2.8755 H           1 A02       0.0502
     79 H12        25.5611    7.8570    2.0726 H           1 A02       0.0502
     80 H13        24.3996    9.3569    4.4917 H           1 A02       0.0290
     81 H14        25.4146    7.9338    4.6061 H           1 A02       0.0290
     82 H15        23.0737    7.3109    4.8922 H           1 A02       0.0267
     83 H16        23.7958    6.5241    3.4891 H           1 A02       0.0267
     84 H17        21.5258    7.1251    2.9323 H           1 A02       0.0285
     85 H18        22.6235    8.1002    1.9695 H           1 A02       0.0285
     86 H19        20.7847    9.5218    2.7134 H           1 A02       0.0520
     87 H20        22.2585   10.0468    3.5094 H           1 A02       0.0520
     88 H21        21.1975    9.7675    5.4186 H           1 A02       0.1851
     89 H22        25.0282   11.2443    3.1122 H           1 A02       0.1883
     90 H23        24.1661   11.9507    0.4022 H           1 A02       0.0800
     91 H24        25.5824   13.4512    2.6484 H           1 A02       0.0312
     92 H25        24.6920   14.3144    1.4062 H           1 A02       0.0312
     93 H26        27.1328   14.1729    0.9467 H           1 A02       0.0269
     94 H27        26.0921   13.6026   -0.3518 H           1 A02       0.0269
     95 H28        28.0519   12.1932   -0.2181 H           1 A02       0.0317
     96 H29        26.6316   11.2521    0.1804 H           1 A02       0.0317
     97 H30        28.1819   10.5088    1.7798 H           1 A02       0.0813
     98 H31        27.3374   11.7445    2.7154 H           1 A02       0.0813
     99 H32        29.6515   11.9684    2.9707 H           1 A02       0.1994
    100 H33        29.1081   13.2689    2.0877 H           1 A02       0.1994
    101 H34        29.9127   12.0273    1.3252 H           1 A02       0.1994
    102 H35        19.7604   17.4566    1.4103 H           1 A02       0.0502
    103 H36        18.4327   16.3053    1.2331 H           1 A02       0.0502
    104 H37        18.5535   15.9340    3.7802 H           1 A02       0.0290
    105 H38        20.0586   16.8761    3.7683 H           1 A02       0.0290
    106 H39        20.9919   15.2094    2.0682 H           1 A02       0.0267
    107 H40        19.5423   14.2182    2.3347 H           1 A02       0.0267
    108 H41        20.1606   14.2970    4.8654 H           1 A02       0.0285
    109 H42        21.7324   14.9232    4.3460 H           1 A02       0.0285
    110 H43        20.6114   12.2701    3.3358 H           1 A02       0.0520
    111 H44        21.4662   12.3991    4.8638 H           1 A02       0.0520
    112 H45        23.4296   12.6833    3.8404 H           1 A02       0.1851
    113 H46        19.3082   19.0556    3.3234 H           1 A02       0.1883
    114 H47        17.9651   21.0213    2.9828 H           1 A02       0.0800
    115 H48        17.4181   21.1856    5.5391 H           1 A02       0.0313
    116 H49        19.0773   21.0770    4.9633 H           1 A02       0.0313
    117 H50        18.9792   18.5512    5.4269 H           1 A02       0.0301
    118 H51        17.4254   18.8387    6.2315 H           1 A02       0.0301
    119 H52        19.3680   20.6937    7.3446 H           1 A02       0.0689
    120 H53        20.1008   19.0901    7.3234 H           1 A02       0.0689
    121 H54        18.2313   20.0485    9.0417 H           1 A02       0.2642
    122 H55        17.5091   16.3680    8.4843 H           1 A02       0.2615
    123 H56        18.4569   17.0639    7.3872 H           1 A02       0.2615
    124 H57        17.1468   19.0116   10.4004 H           1 A02       0.2615
    125 H58        16.8066   17.4364   10.2089 H           1 A02       0.2615
    126 H59        15.9898   21.7847    2.5287 H           1 A02       0.1883
    127 H60        13.9206   21.9889    2.0497 H           1 A02       0.0800
    128 H61        13.7718   20.8942    4.8141 H           1 A02       0.0313
    129 H62        12.3214   20.5922    3.8822 H           1 A02       0.0313
    130 H63        12.2281   22.6820    5.2371 H           1 A02       0.0301
    131 H64        11.8755   22.8790    3.5319 H           1 A02       0.0301
    132 H65        13.2116   24.7522    3.9649 H           1 A02       0.0689
    133 H66        14.3649   23.6194    3.2780 H           1 A02       0.0689
    134 H67        15.4736   23.7205    5.1253 H           1 A02       0.2642
    135 H68        12.9740   25.1430    7.6368 H           1 A02       0.2615
    136 H69        12.3798   24.7298    6.1853 H           1 A02       0.2615
    137 H70        16.0860   24.3067    7.0566 H           1 A02       0.2615
    138 H71        15.0209   24.9208    8.1166 H           1 A02       0.2615
    139 H72        13.5597   19.2567   -0.0864 H           1 A02       0.1815
    140 H73        14.1150   20.8379    0.0454 H           1 A02       0.1815
@<TRIPOS>BOND
     1     2     1  ar
     2     6     1  ar
     3     3     2  ar
     4     4     3  ar
     5     4     5  ar
     6    10     4   1
     7     5     6  ar
     8     8     5   1
     9     6     7   1
    10     9     8   2
    11    10     9   1
    12    19    10   1
    13    15    11   2
    14    16    12   1
    15    17    13   1
    16    18    14   1
    17    14    19   1
    18    15    18   1
    19    27    15  am
    20    16    17   1
    21    18    16   1
    22    17    19   1
    23    20    21   2
    24    20    22   1
    25    28    20  am
    26    22    23   1
    27    23    24   1
    28    24    25   1
    29    25    26   1
    30    26    27   1
    31    29    28   1
    32    30    29   1
    33    29    32   1
    34    30    31   2
    35    44    30  am
    36    32    33   1
    37    33    34   1
    38    34    35   1
    39    35    36   1
    40    37    38   2
    41    39    37   1
    42    37    45  am
    43    40    39   1
    44    41    40   1
    45    42    41   1
    46    43    42   1
    47    43    44   1
    48    45    46   1
    49    46    47   1
    50    46    54   1
    51    47    48   1
    52    48    49   1
    53    49    50   1
    54    50    51  ar
    55    51    52  ar
    56    51    53  ar
    57    54    55   2
    58    54    56  am
    59    56    57   1
    60    57    58   1
    61    57    65   1
    62    58    59   1
    63    59    60   1
    64    60    61   1
    65    61    62  ar
    66    62    63  ar
    67    62    64  ar
    68    65    66   2
    69    65    67  am
    70     2    68   1
    71     7    69   1
    72     7    70   1
    73     9    71   1
    74    12    72   1
    75    13    73   1
    76    16    74   1
    77    17    75   1
    78    18    76   1
    79    19    77   1
    80    22    78   1
    81    22    79   1
    82    23    80   1
    83    23    81   1
    84    24    82   1
    85    24    83   1
    86    25    84   1
    87    25    85   1
    88    26    86   1
    89    26    87   1
    90    27    88   1
    91    28    89   1
    92    29    90   1
    93    32    91   1
    94    32    92   1
    95    33    93   1
    96    33    94   1
    97    34    95   1
    98    34    96   1
    99    35    97   1
   100    35    98   1
   101    36    99   1
   102    36   100   1
   103    36   101   1
   104    39   102   1
   105    39   103   1
   106    40   104   1
   107    40   105   1
   108    41   106   1
   109    41   107   1
   110    42   108   1
   111    42   109   1
   112    43   110   1
   113    43   111   1
   114    44   112   1
   115    45   113   1
   116    46   114   1
   117    47   115   1
   118    47   116   1
   119    48   117   1
   120    48   118   1
   121    49   119   1
   122    49   120   1
   123    50   121   1
   124    52   122   1
   125    52   123   1
   126    53   124   1
   127    53   125   1
   128    56   126   1
   129    57   127   1
   130    58   128   1
   131    58   129   1
   132    59   130   1
   133    59   131   1
   134    60   132   1
   135    60   133   1
   136    61   134   1
   137    63   135   1
   138    63   136   1
   139    64   137   1
   140    64   138   1
   141    67   139   1
   142    67   140   1
@<TRIPOS>SUBSTRUCTURE
     1  A02      2

