@<TRIPOS>MOLECULE
3ag9_ligand_081
   140   142
SMALL
GAST_HUCK
****
This file was generated by PARSER (from files_GN.cpp)

@<TRIPOS>ATOM
      1 N1          7.4368    5.4182   11.4051 N.ar        1 A02      -0.2698
      2 C2          8.7150    5.3376   11.8693 C.ar        1 A02       0.0533
      3 N3          8.9453    5.2147   13.2016 N.ar        1 A02      -0.2714
      4 C4          7.9069    5.1587   14.0796 C.ar        1 A02       0.1613
      5 C5          6.5902    5.2287   13.6191 C.ar        1 A02       0.1045
      6 C6          6.3596    5.3667   12.2370 C.ar        1 A02       0.1298
      7 N6          5.1261    5.4604   11.7108 N.pl3       1 A02      -0.3152
      8 N7          5.7688    5.1608   14.6734 N.2         1 A02      -0.2958
      9 C8          6.5604    5.0559   15.7608 C.2         1 A02       0.1123
     10 N9          7.8750    5.0550   15.4238 N.pl3       1 A02      -0.1918
     11 OAL        12.3870    2.4996   14.9500 O.2         1 A02      -0.3941
     12 OAN        10.9145    2.2272   17.6727 O.3         1 A02      -0.3840
     13 OAO         9.2697    4.1964   18.6282 O.3         1 A02      -0.3834
     14 OBV        10.2475    5.1431   15.6634 O.3         1 A02      -0.3181
     15 CCC        11.9840    3.6561   14.9953 C.2         1 A02       0.2080
     16 CCK        10.2226    3.0095   16.7035 C.3         1 A02       0.1295
     17 CCL         9.0436    3.8041   17.2721 C.3         1 A02       0.1408
     18 CCM        11.1327    4.0990   16.0964 C.3         1 A02       0.1788
     19 CCN         8.9822    5.0502   16.3517 C.3         1 A02       0.2035
     20 CBZ        12.3843    6.8761    8.3596 C.2         1 A02       0.1782
     21 OAI        13.1429    6.6416    7.4258 O.2         1 A02      -0.3969
     22 CBG        11.4927    5.8189    8.8285 C.3         1 A02       0.0374
     23 CAX        12.1403    4.4138    9.0040 C.3         1 A02      -0.0360
     24 CAU        13.0017    4.2068   10.2810 C.3         1 A02      -0.0492
     25 CAW        12.2103    4.3642   11.6105 C.3         1 A02      -0.0326
     26 CBD        13.1059    4.2471   12.8728 C.3         1 A02       0.0310
     27 NBR        12.3270    4.5205   14.0456 N.am        1 A02      -0.2847
     28 NBS        12.2008    8.1178    8.7991 N.am        1 A02      -0.2656
     29 CCI        12.7802    9.3345    8.2850 C.3         1 A02       0.1308
     30 CCB        11.7557    9.9877    7.4607 C.2         1 A02       0.2016
     31 OAK        11.7252    9.6886    6.2724 O.2         1 A02      -0.3945
     32 CBJ        13.3469   10.2083    9.4524 C.3         1 A02      -0.0122
     33 CAZ        14.7443    9.7998    9.9970 C.3         1 A02      -0.0440
     34 CAS        15.0435    8.2824   10.1129 C.3         1 A02      -0.0124
     35 CAR        14.2886    7.5359   11.2432 C.3         1 A02      -0.0354
     36 NAC        13.9702    8.3869   12.3968 N.4         1 A02       0.2185
     37 CCA        13.8175   15.6253    4.0205 C.2         1 A02       0.1782
     38 OAJ        13.2911   15.8084    2.9266 O.2         1 A02      -0.3969
     39 CBH        12.9468   15.3402    5.1512 C.3         1 A02       0.0374
     40 CAY        12.4379   13.8694    5.1306 C.3         1 A02      -0.0360
     41 CAT        11.5304   13.4992    6.3387 C.3         1 A02      -0.0492
     42 CAV        10.5345   12.3606    5.9781 C.3         1 A02      -0.0326
     43 CBC         9.9272   11.6237    7.2023 C.3         1 A02       0.0310
     44 NBQ        10.8773   10.8585    7.9547 N.am        1 A02      -0.2851
     45 NBT        15.1337   15.6811    4.1773 N.am        1 A02      -0.2656
     46 CCJ        16.1203   15.8865    3.1468 C.3         1 A02       0.1310
     47 CBK        17.0141   14.6051    3.0271 C.3         1 A02      -0.0092
     48 CBB        17.3470   13.7826    4.3076 C.3         1 A02      -0.0156
     49 CBF        18.4322   14.3341    5.2750 C.3         1 A02       0.0627
     50 NBP        19.3642   15.2346    4.7595 N.pl3       1 A02      -0.2723
     51 CBX        20.2691   15.0511    3.8636 C.cat       1 A02       0.2882
     52 NAB        20.4816   13.9533    3.2373 N.pl3       1 A02      -0.2849
     53 NAE        21.0170   16.0423    3.5751 N.pl3       1 A02      -0.2849
     54 CCD        16.7795   17.1750    3.3548 C.2         1 A02       0.2039
     55 OAM        18.0001   17.2590    3.3840 O.2         1 A02      -0.3944
     56 N          16.0358   18.2779    3.3316 N.am        1 A02      -0.2637
     57 CA         16.4983   19.6361    3.3621 C.3         1 A02       0.1307
     58 CB         17.0554   20.1180    4.7419 C.3         1 A02      -0.0092
     59 CG         16.4438   19.4663    6.0241 C.3         1 A02      -0.0156
     60 CD         17.1804   18.1691    6.4777 C.3         1 A02       0.0627
     61 NE         17.0679   17.8911    7.8497 N.pl3       1 A02      -0.2723
     62 CZ         17.5498   18.5742    8.8208 C.cat       1 A02       0.2882
     63 NH1        18.2186   19.6586    8.6960 N.pl3       1 A02      -0.2849
     64 NH2        17.3663   18.1612   10.0137 N.pl3       1 A02      -0.2849
     65 C          15.4316   20.4984    2.8838 C.2         1 A02       0.1992
     66 O          14.2892   20.3783    3.3068 O.2         1 A02      -0.3947
     67 NAF        15.6529   21.4455    1.9965 N.am        1 A02      -0.2990
     68 H1          9.4997    5.3810   11.2205 H           1 A02       0.0996
     69 H2          4.3455    5.4395   12.2858 H           1 A02       0.1820
     70 H3          5.0263    5.5195   10.7441 H           1 A02       0.1820
     71 H4          6.2026    5.0069   16.7158 H           1 A02       0.1349
     72 H5         10.2422    2.0162   18.3591 H           1 A02       0.2102
     73 H6          9.0831    3.3977   19.1679 H           1 A02       0.2101
     74 H7          9.8495    2.3499   15.9178 H           1 A02       0.0673
     75 H8          8.1272    3.2100   17.2300 H           1 A02       0.0678
     76 H9         11.7784    4.5173   16.8757 H           1 A02       0.0869
     77 H10         8.8775    5.9560   16.9576 H           1 A02       0.0998
     78 H11        10.7047    5.7222    8.0715 H           1 A02       0.0502
     79 H12        11.0080    6.1044    9.7670 H           1 A02       0.0502
     80 H13        12.7730    4.2008    8.1359 H           1 A02       0.0290
     81 H14        11.3403    3.6616    9.0008 H           1 A02       0.0290
     82 H15        13.8430    4.9109   10.2718 H           1 A02       0.0267
     83 H16        13.4185    3.1920   10.2412 H           1 A02       0.0267
     84 H17        11.4423    3.5843   11.6778 H           1 A02       0.0285
     85 H18        11.7163    5.3444   11.6093 H           1 A02       0.0285
     86 H19        13.9172    4.9813   12.8324 H           1 A02       0.0520
     87 H20        13.5622    3.2493   12.9050 H           1 A02       0.0520
     88 H21        11.9800    5.4265   14.1243 H           1 A02       0.1851
     89 H22        11.5116    8.2422    9.4745 H           1 A02       0.1883
     90 H23        13.6216    9.1190    7.6141 H           1 A02       0.0800
     91 H24        12.6258   10.2469   10.2724 H           1 A02       0.0312
     92 H25        13.4771   11.2333    9.0989 H           1 A02       0.0312
     93 H26        14.8656   10.2405   10.9917 H           1 A02       0.0269
     94 H27        15.5125   10.2482    9.3576 H           1 A02       0.0269
     95 H28        16.1205    8.1638   10.2794 H           1 A02       0.0317
     96 H29        14.8140    7.8009    9.1589 H           1 A02       0.0317
     97 H30        14.9206    6.7187   11.6001 H           1 A02       0.0813
     98 H31        13.3586    7.1112   10.8593 H           1 A02       0.0813
     99 H32        13.5662    7.8153   13.1408 H           1 A02       0.1994
    100 H33        13.2975    9.1055   12.1215 H           1 A02       0.1994
    101 H34        14.8238    8.8362   12.7346 H           1 A02       0.1994
    102 H35        12.0852   16.0153    5.1055 H           1 A02       0.0502
    103 H36        13.4671   15.5282    6.0991 H           1 A02       0.0502
    104 H37        13.3022   13.1930    5.1283 H           1 A02       0.0290
    105 H38        11.8764   13.7102    4.2023 H           1 A02       0.0290
    106 H39        10.9656   14.3844    6.6534 H           1 A02       0.0267
    107 H40        12.1726   13.1929    7.1732 H           1 A02       0.0267
    108 H41        11.0299   11.6304    5.3331 H           1 A02       0.0285
    109 H42         9.7173   12.8011    5.4015 H           1 A02       0.0285
    110 H43         9.1264   10.9625    6.8620 H           1 A02       0.0520
    111 H44         9.4837   12.3641    7.8707 H           1 A02       0.0520
    112 H45        10.8601   10.9855    8.9169 H           1 A02       0.1851
    113 H46        15.4717   15.5590    5.0816 H           1 A02       0.1883
    114 H47        15.6311   15.9797    2.1689 H           1 A02       0.0800
    115 H48        17.9482   14.8575    2.5201 H           1 A02       0.0313
    116 H49        16.4904   13.9077    2.3605 H           1 A02       0.0313
    117 H50        17.6514   12.7825    3.9869 H           1 A02       0.0301
    118 H51        16.4249   13.6431    4.8804 H           1 A02       0.0301
    119 H52        18.9726   13.4940    5.7176 H           1 A02       0.0689
    120 H53        17.9207   14.8409    6.0934 H           1 A02       0.0689
    121 H54        19.3399   16.0965    5.1208 H           1 A02       0.2642
    122 H55        21.1634   13.9075    2.6017 H           1 A02       0.2615
    123 H56        19.9727   13.1960    3.4183 H           1 A02       0.2615
    124 H57        20.9199   16.8552    4.0246 H           1 A02       0.2615
    125 H58        21.6787   15.9537    2.9214 H           1 A02       0.2615
    126 H59        15.0782   18.1422    3.2431 H           1 A02       0.1883
    127 H60        17.3284   19.6975    2.6455 H           1 A02       0.0800
    128 H61        16.9140   21.1993    4.7976 H           1 A02       0.0313
    129 H62        18.1396   19.9742    4.7421 H           1 A02       0.0313
    130 H63        15.3846   19.2383    5.8725 H           1 A02       0.0301
    131 H64        16.4877   20.2069    6.8268 H           1 A02       0.0301
    132 H65        18.2425   18.2116    6.2123 H           1 A02       0.0689
    133 H66        16.7388   17.3356    5.9347 H           1 A02       0.0689
    134 H67        16.6239   17.0949    8.0817 H           1 A02       0.2642
    135 H68        18.5136   20.1060    9.4638 H           1 A02       0.2615
    136 H69        18.3965   20.0168    7.8498 H           1 A02       0.2615
    137 H70        16.9028   17.3610   10.1762 H           1 A02       0.2615
    138 H71        17.6949   18.6744   10.7274 H           1 A02       0.2615
    139 H72        14.9249   22.0059    1.6941 H           1 A02       0.1815
    140 H73        16.5458   21.5820    1.6413 H           1 A02       0.1815
@<TRIPOS>BOND
     1     2     1  ar
     2     6     1  ar
     3     3     2  ar
     4     4     3  ar
     5     4     5  ar
     6    10     4   1
     7     5     6  ar
     8     8     5   1
     9     6     7   1
    10     9     8   2
    11    10     9   1
    12    19    10   1
    13    15    11   2
    14    16    12   1
    15    17    13   1
    16    18    14   1
    17    14    19   1
    18    15    18   1
    19    27    15  am
    20    16    17   1
    21    18    16   1
    22    17    19   1
    23    20    21   2
    24    20    22   1
    25    28    20  am
    26    22    23   1
    27    23    24   1
    28    24    25   1
    29    25    26   1
    30    26    27   1
    31    29    28   1
    32    30    29   1
    33    29    32   1
    34    30    31   2
    35    44    30  am
    36    32    33   1
    37    33    34   1
    38    34    35   1
    39    35    36   1
    40    37    38   2
    41    39    37   1
    42    37    45  am
    43    40    39   1
    44    41    40   1
    45    42    41   1
    46    43    42   1
    47    43    44   1
    48    45    46   1
    49    46    47   1
    50    46    54   1
    51    47    48   1
    52    48    49   1
    53    49    50   1
    54    50    51  ar
    55    51    52  ar
    56    51    53  ar
    57    54    55   2
    58    54    56  am
    59    56    57   1
    60    57    58   1
    61    57    65   1
    62    58    59   1
    63    59    60   1
    64    60    61   1
    65    61    62  ar
    66    62    63  ar
    67    62    64  ar
    68    65    66   2
    69    65    67  am
    70     2    68   1
    71     7    69   1
    72     7    70   1
    73     9    71   1
    74    12    72   1
    75    13    73   1
    76    16    74   1
    77    17    75   1
    78    18    76   1
    79    19    77   1
    80    22    78   1
    81    22    79   1
    82    23    80   1
    83    23    81   1
    84    24    82   1
    85    24    83   1
    86    25    84   1
    87    25    85   1
    88    26    86   1
    89    26    87   1
    90    27    88   1
    91    28    89   1
    92    29    90   1
    93    32    91   1
    94    32    92   1
    95    33    93   1
    96    33    94   1
    97    34    95   1
    98    34    96   1
    99    35    97   1
   100    35    98   1
   101    36    99   1
   102    36   100   1
   103    36   101   1
   104    39   102   1
   105    39   103   1
   106    40   104   1
   107    40   105   1
   108    41   106   1
   109    41   107   1
   110    42   108   1
   111    42   109   1
   112    43   110   1
   113    43   111   1
   114    44   112   1
   115    45   113   1
   116    46   114   1
   117    47   115   1
   118    47   116   1
   119    48   117   1
   120    48   118   1
   121    49   119   1
   122    49   120   1
   123    50   121   1
   124    52   122   1
   125    52   123   1
   126    53   124   1
   127    53   125   1
   128    56   126   1
   129    57   127   1
   130    58   128   1
   131    58   129   1
   132    59   130   1
   133    59   131   1
   134    60   132   1
   135    60   133   1
   136    61   134   1
   137    63   135   1
   138    63   136   1
   139    64   137   1
   140    64   138   1
   141    67   139   1
   142    67   140   1
@<TRIPOS>SUBSTRUCTURE
     1  A02      2

