@<TRIPOS>MOLECULE
3ag9_ligand_006
   140   142
SMALL
GAST_HUCK
****
This file was generated by PARSER (from files_GN.cpp)

@<TRIPOS>ATOM
      1 N1         17.8740    2.2787    9.8887 N.ar        1 A02      -0.2698
      2 C2         17.0624    3.0743    9.1373 C.ar        1 A02       0.0533
      3 N3         17.5272    3.6416    7.9956 N.ar        1 A02      -0.2714
      4 C4         18.8096    3.4262    7.6036 C.ar        1 A02       0.1613
      5 C5         19.6585    2.6180    8.3576 C.ar        1 A02       0.1045
      6 C6         19.1655    2.0283    9.5353 C.ar        1 A02       0.1298
      7 N6         19.9326    1.2357   10.3011 N.pl3       1 A02      -0.3152
      8 N7         20.8579    2.5778    7.7625 N.2         1 A02      -0.2958
      9 C8         20.7495    3.3370    6.6570 C.2         1 A02       0.1123
     10 N9         19.5076    3.8618    6.5394 N.pl3       1 A02      -0.1918
     11 OAL        15.4078    4.1607    3.6065 O.2         1 A02      -0.3941
     12 OAN        18.8577    5.9700    2.6036 O.3         1 A02      -0.3840
     13 OAO        20.4055    3.9472    3.5506 O.3         1 A02      -0.3834
     14 OBV        17.7129    5.1624    5.6313 O.3         1 A02      -0.3181
     15 CCC        15.7754    5.0806    4.3286 C.2         1 A02       0.2080
     16 CCK        18.1386    4.9292    3.2742 C.3         1 A02       0.1295
     17 CCL        19.0864    4.0372    4.0934 C.3         1 A02       0.1408
     18 CCM        17.1723    5.5123    4.3486 C.3         1 A02       0.1788
     19 CCN        19.0686    4.7232    5.4734 C.3         1 A02       0.2035
     20 CBZ        10.6025    4.3559    9.3725 C.2         1 A02       0.1782
     21 OAI         9.4814    4.8511    9.3187 O.2         1 A02      -0.3969
     22 CBG        10.8447    3.1164    8.6424 C.3         1 A02       0.0374
     23 CAX        11.1909    3.2975    7.1345 C.3         1 A02      -0.0360
     24 CAU        12.6904    3.6272    6.8315 C.3         1 A02      -0.0492
     25 CAW        13.0122    5.1424    6.6295 C.3         1 A02      -0.0326
     26 CBD        13.4908    5.5425    5.1992 C.3         1 A02       0.0310
     27 NBR        14.9156    5.7042    5.1300 N.am        1 A02      -0.2847
     28 NBS        11.5463    4.7980   10.2021 N.am        1 A02      -0.2656
     29 CCI        11.5423    5.8246   11.2129 C.3         1 A02       0.1308
     30 CCB        12.8082    6.5504   11.1662 C.2         1 A02       0.2016
     31 OAK        13.3554    6.8462   12.2251 O.2         1 A02      -0.3945
     32 CBJ        10.3250    6.7966   11.4491 C.3         1 A02      -0.0122
     33 CAZ        10.1103    8.0393   10.5349 C.3         1 A02      -0.0440
     34 CAS         9.8260    7.7320    9.0438 C.3         1 A02      -0.0124
     35 CAR         9.7157    8.9924    8.1527 C.3         1 A02      -0.0354
     36 NAC         8.9879   10.0910    8.8104 N.4         1 A02       0.2185
     37 CCA        14.3387   12.2964    5.9691 C.2         1 A02       0.1782
     38 OAJ        13.4956   12.0282    5.1205 O.2         1 A02      -0.3969
     39 CBH        15.1861   11.2284    6.4991 C.3         1 A02       0.0374
     40 CAY        15.2006   11.1240    8.0554 C.3         1 A02      -0.0360
     41 CAT        15.5428    9.7149    8.6227 C.3         1 A02      -0.0492
     42 CAV        14.2998    8.8038    8.8018 C.3         1 A02      -0.0326
     43 CBC        14.5524    7.6328    9.7833 C.3         1 A02       0.0310
     44 NBQ        13.3380    6.9077    9.9964 N.am        1 A02      -0.2851
     45 NBT        14.4667   13.5420    6.4153 N.am        1 A02      -0.2656
     46 CCJ        13.6849   14.7079    6.1012 C.3         1 A02       0.1310
     47 CBK        12.1468   14.4556    5.9287 C.3         1 A02      -0.0092
     48 CBB        11.4125   13.9584    7.2158 C.3         1 A02      -0.0156
     49 CBF        10.7681   12.5511    7.1014 C.3         1 A02       0.0627
     50 NBP         9.6823   12.4925    6.2171 N.pl3       1 A02      -0.2723
     51 CBX         8.4603   12.8256    6.4436 C.cat       1 A02       0.2882
     52 NAB         8.0125   13.2646    7.5548 N.pl3       1 A02      -0.2849
     53 NAE         7.6283   12.6981    5.4848 N.pl3       1 A02      -0.2849
     54 CCD        14.3167   15.4466    5.0170 C.2         1 A02       0.2039
     55 OAM        13.7502   15.5647    3.9353 O.2         1 A02      -0.3944
     56 N          15.5077   16.0070    5.2154 N.am        1 A02      -0.2637
     57 CA         16.1810   16.8945    4.3096 C.3         1 A02       0.1307
     58 CB         17.7013   17.0471    4.6369 C.3         1 A02      -0.0092
     59 CG         18.0564   17.8279    5.9448 C.3         1 A02      -0.0156
     60 CD         18.7117   16.9791    7.0768 C.3         1 A02       0.0627
     61 NE         18.0882   17.1444    8.3141 N.pl3       1 A02      -0.2723
     62 CZ         18.1759   18.1393    9.1179 C.cat       1 A02       0.2882
     63 NH1        18.9057   19.1768    8.9631 N.pl3       1 A02      -0.2849
     64 NH2        17.4450   18.0929   10.1652 N.pl3       1 A02      -0.2849
     65 C          15.5205   18.1961    4.2233 C.2         1 A02       0.1992
     66 O          15.4255   18.7730    3.1495 O.2         1 A02      -0.3947
     67 NAF        14.9753   18.7838    5.2730 N.am        1 A02      -0.2990
     68 H1         16.0984    3.2373    9.4300 H           1 A02       0.0996
     69 H2         20.8501    1.0571   10.0473 H           1 A02       0.1820
     70 H3         19.5771    0.8434   11.1134 H           1 A02       0.1820
     71 H4         21.5254    3.4941    6.0074 H           1 A02       0.1349
     72 H5         19.3204    6.4723    3.3091 H           1 A02       0.2102
     73 H6         20.3985    3.1497    2.9774 H           1 A02       0.2101
     74 H7         17.6348    4.3359    2.5042 H           1 A02       0.0673
     75 H8         18.6628    3.0284    4.1744 H           1 A02       0.0678
     76 H9         17.1795    6.6020    4.2608 H           1 A02       0.0869
     77 H10        19.7115    5.6129    5.4574 H           1 A02       0.0998
     78 H11         9.9422    2.4986    8.7142 H           1 A02       0.0502
     79 H12        11.6495    2.5326    9.1178 H           1 A02       0.0502
     80 H13        10.5369    4.0567    6.6884 H           1 A02       0.0290
     81 H14        10.9551    2.3422    6.6478 H           1 A02       0.0290
     82 H15        12.9818    3.0680    5.9385 H           1 A02       0.0267
     83 H16        13.3089    3.2346    7.6457 H           1 A02       0.0267
     84 H17        13.7786    5.4317    7.3510 H           1 A02       0.0285
     85 H18        12.1252    5.7352    6.8693 H           1 A02       0.0285
     86 H19        13.0654    6.5171    4.9502 H           1 A02       0.0520
     87 H20        13.1145    4.8388    4.4488 H           1 A02       0.0520
     88 H21        15.2824    6.3967    5.7056 H           1 A02       0.1851
     89 H22        12.3836    4.2951   10.1772 H           1 A02       0.1883
     90 H23        11.5597    5.2114   12.1248 H           1 A02       0.0800
     91 H24        10.4543    7.2091   12.4574 H           1 A02       0.0312
     92 H25         9.4008    6.2161   11.4955 H           1 A02       0.0312
     93 H26        10.9637    8.7123   10.6109 H           1 A02       0.0269
     94 H27         9.2476    8.5835   10.9267 H           1 A02       0.0269
     95 H28         8.8835    7.1833    8.9643 H           1 A02       0.0317
     96 H29        10.6267    7.1088    8.6437 H           1 A02       0.0317
     97 H30         9.1824    8.7364    7.2325 H           1 A02       0.0813
     98 H31        10.7182    9.3380    7.8846 H           1 A02       0.0813
     99 H32         8.7126   10.7821    8.1051 H           1 A02       0.1994
    100 H33         9.6119   10.5390    9.4922 H           1 A02       0.1994
    101 H34         8.1469    9.7304    9.2809 H           1 A02       0.1994
    102 H35        16.2064   11.4003    6.1416 H           1 A02       0.0502
    103 H36        14.8627   10.2713    6.0789 H           1 A02       0.0502
    104 H37        14.2301   11.4418    8.4505 H           1 A02       0.0290
    105 H38        15.9526   11.8328    8.4197 H           1 A02       0.0290
    106 H39        16.0066    9.8588    9.6015 H           1 A02       0.0267
    107 H40        16.2752    9.2239    7.9739 H           1 A02       0.0267
    108 H41        14.0019    8.4017    7.8265 H           1 A02       0.0285
    109 H42        13.4767    9.4098    9.1926 H           1 A02       0.0285
    110 H43        14.9660    8.0255   10.7166 H           1 A02       0.0520
    111 H44        15.2881    6.9521    9.3491 H           1 A02       0.0520
    112 H45        12.8467    6.6471    9.2002 H           1 A02       0.1851
    113 H46        15.1880   13.7148    7.0366 H           1 A02       0.1883
    114 H47        13.7561   15.3542    6.9842 H           1 A02       0.0800
    115 H48        11.9653   13.7599    5.1039 H           1 A02       0.0313
    116 H49        11.6792   15.4006    5.6363 H           1 A02       0.0313
    117 H50        10.6231   14.6637    7.4833 H           1 A02       0.0301
    118 H51        12.1060   13.9339    8.0612 H           1 A02       0.0301
    119 H52        10.4610   12.2111    8.0982 H           1 A02       0.0689
    120 H53        11.5196   11.8406    6.7507 H           1 A02       0.0689
    121 H54         9.8639   12.1592    5.3608 H           1 A02       0.2642
    122 H55         7.1037   13.4741    7.6393 H           1 A02       0.2615
    123 H56         8.5703   13.3503    8.3023 H           1 A02       0.2615
    124 H57         7.9123   12.3750    4.6528 H           1 A02       0.2615
    125 H58         6.7281   12.9254    5.6125 H           1 A02       0.2615
    126 H59        15.9279   15.8323    6.0726 H           1 A02       0.1883
    127 H60        16.1509   16.4278    3.3213 H           1 A02       0.0800
    128 H61        18.1888   17.5522    3.7918 H           1 A02       0.0313
    129 H62        18.1437   16.0457    4.6704 H           1 A02       0.0313
    130 H63        17.1541   18.2970    6.3421 H           1 A02       0.0301
    131 H64        18.7451   18.6411    5.6919 H           1 A02       0.0301
    132 H65        19.7760   17.2104    7.1531 H           1 A02       0.0689
    133 H66        18.6291   15.9164    6.8394 H           1 A02       0.0689
    134 H67        17.4980   16.4623    8.5656 H           1 A02       0.2642
    135 H68        18.8867   19.8481    9.6178 H           1 A02       0.2615
    136 H69        19.4619   19.2684    8.2172 H           1 A02       0.2615
    137 H70        16.8838   17.3552   10.3060 H           1 A02       0.2615
    138 H71        17.4685   18.8006   10.7781 H           1 A02       0.2615
    139 H72        14.5374   19.6470    5.1768 H           1 A02       0.1815
    140 H73        14.9915   18.3498    6.1407 H           1 A02       0.1815
@<TRIPOS>BOND
     1     2     1  ar
     2     6     1  ar
     3     3     2  ar
     4     4     3  ar
     5     4     5  ar
     6    10     4   1
     7     5     6  ar
     8     8     5   1
     9     6     7   1
    10     9     8   2
    11    10     9   1
    12    19    10   1
    13    15    11   2
    14    16    12   1
    15    17    13   1
    16    18    14   1
    17    14    19   1
    18    15    18   1
    19    27    15  am
    20    16    17   1
    21    18    16   1
    22    17    19   1
    23    20    21   2
    24    20    22   1
    25    28    20  am
    26    22    23   1
    27    23    24   1
    28    24    25   1
    29    25    26   1
    30    26    27   1
    31    29    28   1
    32    30    29   1
    33    29    32   1
    34    30    31   2
    35    44    30  am
    36    32    33   1
    37    33    34   1
    38    34    35   1
    39    35    36   1
    40    37    38   2
    41    39    37   1
    42    37    45  am
    43    40    39   1
    44    41    40   1
    45    42    41   1
    46    43    42   1
    47    43    44   1
    48    45    46   1
    49    46    47   1
    50    46    54   1
    51    47    48   1
    52    48    49   1
    53    49    50   1
    54    50    51  ar
    55    51    52  ar
    56    51    53  ar
    57    54    55   2
    58    54    56  am
    59    56    57   1
    60    57    58   1
    61    57    65   1
    62    58    59   1
    63    59    60   1
    64    60    61   1
    65    61    62  ar
    66    62    63  ar
    67    62    64  ar
    68    65    66   2
    69    65    67  am
    70     2    68   1
    71     7    69   1
    72     7    70   1
    73     9    71   1
    74    12    72   1
    75    13    73   1
    76    16    74   1
    77    17    75   1
    78    18    76   1
    79    19    77   1
    80    22    78   1
    81    22    79   1
    82    23    80   1
    83    23    81   1
    84    24    82   1
    85    24    83   1
    86    25    84   1
    87    25    85   1
    88    26    86   1
    89    26    87   1
    90    27    88   1
    91    28    89   1
    92    29    90   1
    93    32    91   1
    94    32    92   1
    95    33    93   1
    96    33    94   1
    97    34    95   1
    98    34    96   1
    99    35    97   1
   100    35    98   1
   101    36    99   1
   102    36   100   1
   103    36   101   1
   104    39   102   1
   105    39   103   1
   106    40   104   1
   107    40   105   1
   108    41   106   1
   109    41   107   1
   110    42   108   1
   111    42   109   1
   112    43   110   1
   113    43   111   1
   114    44   112   1
   115    45   113   1
   116    46   114   1
   117    47   115   1
   118    47   116   1
   119    48   117   1
   120    48   118   1
   121    49   119   1
   122    49   120   1
   123    50   121   1
   124    52   122   1
   125    52   123   1
   126    53   124   1
   127    53   125   1
   128    56   126   1
   129    57   127   1
   130    58   128   1
   131    58   129   1
   132    59   130   1
   133    59   131   1
   134    60   132   1
   135    60   133   1
   136    61   134   1
   137    63   135   1
   138    63   136   1
   139    64   137   1
   140    64   138   1
   141    67   139   1
   142    67   140   1
@<TRIPOS>SUBSTRUCTURE
     1  A02      2

