@<TRIPOS>MOLECULE
3ag9_ligand_046
   140   142
SMALL
GAST_HUCK
****
This file was generated by PARSER (from files_GN.cpp)

@<TRIPOS>ATOM
      1 N1          5.3080   13.6867   11.3063 N.ar        1 A02      -0.2698
      2 C2          4.5994   13.6527   12.4689 C.ar        1 A02       0.0533
      3 N3          4.2654   12.4584   13.0288 N.ar        1 A02      -0.2714
      4 C4          4.6341   11.3006   12.4208 C.ar        1 A02       0.1613
      5 C5          5.3441   11.3145   11.2247 C.ar        1 A02       0.1045
      6 C6          5.6944   12.5526   10.6617 C.ar        1 A02       0.1298
      7 N6          6.4108   12.6390    9.5315 N.pl3       1 A02      -0.3152
      8 N7          5.5794   10.0498   10.8512 N.2         1 A02      -0.2958
      9 C8          5.0279    9.2700   11.7980 C.2         1 A02       0.1123
     10 N9          4.4525   10.0151   12.7682 N.pl3       1 A02      -0.1918
     11 OAL         3.9026    5.5244   14.5722 O.2         1 A02      -0.3941
     12 OAN         1.7186    8.6704   15.9994 O.3         1 A02      -0.3840
     13 OAO         1.4157    9.5583   13.4172 O.3         1 A02      -0.3834
     14 OBV         4.6911    8.6424   14.6676 O.3         1 A02      -0.3181
     15 CCC         4.4833    6.3875   15.2201 C.2         1 A02       0.2080
     16 CCK         2.4098    7.9195   14.9982 C.3         1 A02       0.1295
     17 CCL         2.5354    8.7180   13.6951 C.3         1 A02       0.1408
     18 CCM         3.8964    7.7078   15.4174 C.3         1 A02       0.1788
     19 CCN         3.8154    9.5274   13.9585 C.3         1 A02       0.2035
     20 CBZ         9.5508    4.5516   10.9750 C.2         1 A02       0.1782
     21 OAI        10.1201    5.5252   11.4524 O.2         1 A02      -0.3969
     22 CBG         8.2698    4.1398   11.5234 C.3         1 A02       0.0374
     23 CAX         8.2412    3.9977   13.0689 C.3         1 A02      -0.0360
     24 CAU         8.1975    5.3417   13.8538 C.3         1 A02      -0.0492
     25 CAW         7.9103    5.1784   15.3709 C.3         1 A02      -0.0326
     26 CBD         6.4226    4.9287   15.7387 C.3         1 A02       0.0310
     27 NBR         5.6784    6.1534   15.7510 N.am        1 A02      -0.2847
     28 NBS        10.0247    3.9458    9.8871 N.am        1 A02      -0.2656
     29 CCI        11.2193    4.2793    9.1669 C.3         1 A02       0.1308
     30 CCB        11.9731    3.0436    8.9741 C.2         1 A02       0.2016
     31 OAK        12.9111    2.7940    9.7217 O.2         1 A02      -0.3945
     32 CBJ        10.8132    5.0542    7.8713 C.3         1 A02      -0.0122
     33 CAZ        11.8963    5.0854    6.7484 C.3         1 A02      -0.0440
     34 CAS        11.8516    6.3676    5.8723 C.3         1 A02      -0.0124
     35 CAR        13.0961    6.5277    4.9627 C.3         1 A02      -0.0354
     36 NAC        12.8518    6.0569    3.5901 N.4         1 A02       0.2185
     37 CCA        17.0479    1.2464    6.9093 C.2         1 A02       0.1782
     38 OAJ        17.0121    0.5300    7.9040 O.2         1 A02      -0.3969
     39 CBH        16.4350    0.7562    5.6881 C.3         1 A02       0.0374
     40 CAY        15.1541    1.5315    5.2622 C.3         1 A02      -0.0360
     41 CAT        14.1886    2.0183    6.3880 C.3         1 A02      -0.0492
     42 CAV        13.7370    0.9354    7.4127 C.3         1 A02      -0.0326
     43 CBC        12.2172    0.9258    7.7380 C.3         1 A02       0.0310
     44 NBQ        11.6091    2.1850    8.0296 N.am        1 A02      -0.2851
     45 NBT        17.5578    2.4751    6.9261 N.am        1 A02      -0.2656
     46 CCJ        18.0479    3.2473    8.0351 C.3         1 A02       0.1310
     47 CBK        19.3748    2.7416    8.6906 C.3         1 A02      -0.0092
     48 CBB        19.3627    1.3578    9.4083 C.3         1 A02      -0.0156
     49 CBF        20.6704    1.0110   10.1663 C.3         1 A02       0.0627
     50 NBP        21.8055    1.6593    9.6806 N.pl3       1 A02      -0.2723
     51 CBX        22.4889    1.3960    8.6306 C.cat       1 A02       0.2882
     52 NAB        22.2656    0.4271    7.8265 N.pl3       1 A02      -0.2849
     53 NAE        23.4687    2.1725    8.3695 N.pl3       1 A02      -0.2849
     54 CCD        16.9860    3.5774    8.9897 C.2         1 A02       0.2039
     55 OAM        16.7634    2.8170    9.9250 O.2         1 A02      -0.3944
     56 N          16.2735    4.6928    8.8204 N.am        1 A02      -0.2637
     57 CA         15.1552    5.1658    9.5933 C.3         1 A02       0.1307
     58 CB         14.7455    6.5978    9.0987 C.3         1 A02      -0.0092
     59 CG         15.9050    7.6271    8.9006 C.3         1 A02      -0.0156
     60 CD         15.4623    9.1185    8.9325 C.3         1 A02       0.0627
     61 NE         14.1291    9.3175    8.5422 N.pl3       1 A02      -0.2723
     62 CZ         13.1817    9.8550    9.2173 C.cat       1 A02       0.2882
     63 NH1        13.2923   10.3007   10.4144 N.pl3       1 A02      -0.2849
     64 NH2        12.0229    9.9638    8.6861 N.pl3       1 A02      -0.2849
     65 C          15.3611    5.0906   11.0422 C.2         1 A02       0.1992
     66 O          15.4758    6.0923   11.7359 O.2         1 A02      -0.3947
     67 NAF        15.3201    3.9365   11.6763 N.am        1 A02      -0.2990
     68 H1          4.3252   14.5235   12.9246 H           1 A02       0.0996
     69 H2          6.7008   11.8371    9.0684 H           1 A02       0.1820
     70 H3          6.6978   13.5119    9.2190 H           1 A02       0.1820
     71 H4          5.0647    8.2470   11.7826 H           1 A02       0.1349
     72 H5          0.7699    8.6221   15.7535 H           1 A02       0.2102
     73 H6          0.6660    8.9441   13.2629 H           1 A02       0.2101
     74 H7          1.8635    6.9888   14.8365 H           1 A02       0.0673
     75 H8          2.6788    8.0300   12.8566 H           1 A02       0.0678
     76 H9          4.0003    7.9585   16.4766 H           1 A02       0.0869
     77 H10         3.5753   10.3629   14.6288 H           1 A02       0.0998
     78 H11         7.9903    3.1647   11.1065 H           1 A02       0.0502
     79 H12         7.5042    4.8561   11.2031 H           1 A02       0.0502
     80 H13         9.1051    3.4124   13.4011 H           1 A02       0.0290
     81 H14         7.3490    3.4271   13.3234 H           1 A02       0.0290
     82 H15         7.4449    6.0026   13.4110 H           1 A02       0.0267
     83 H16         9.1706    5.8314   13.7540 H           1 A02       0.0267
     84 H17         8.2436    6.0826   15.8905 H           1 A02       0.0285
     85 H18         8.5073    4.3503   15.7602 H           1 A02       0.0285
     86 H19         6.3798    4.5301   16.7541 H           1 A02       0.0520
     87 H20         5.9862    4.1788   15.0792 H           1 A02       0.0520
     88 H21         6.0584    6.8691   16.2847 H           1 A02       0.1851
     89 H22         9.4788    3.2342    9.5107 H           1 A02       0.1883
     90 H23        11.8385    4.9606    9.7654 H           1 A02       0.0800
     91 H24        10.5727    6.0806    8.1738 H           1 A02       0.0312
     92 H25         9.8987    4.6204    7.4478 H           1 A02       0.0312
     93 H26        11.7549    4.2109    6.1077 H           1 A02       0.0269
     94 H27        12.8932    5.0055    7.1865 H           1 A02       0.0269
     95 H28        11.8034    7.2374    6.5354 H           1 A02       0.0317
     96 H29        10.9478    6.3671    5.2540 H           1 A02       0.0317
     97 H30        13.9418    5.9772    5.3806 H           1 A02       0.0813
     98 H31        13.3719    7.5835    4.9042 H           1 A02       0.0813
     99 H32        13.7440    5.9264    3.1103 H           1 A02       0.1994
    100 H33        12.2962    6.7502    3.0853 H           1 A02       0.1994
    101 H34        12.3423    5.1732    3.6040 H           1 A02       0.1994
    102 H35        16.1790   -0.3061    5.7869 H           1 A02       0.0502
    103 H36        17.1701    0.8289    4.8773 H           1 A02       0.0502
    104 H37        14.5813    0.8905    4.5879 H           1 A02       0.0290
    105 H38        15.4546    2.4104    4.6839 H           1 A02       0.0290
    106 H39        13.3032    2.4314    5.8930 H           1 A02       0.0267
    107 H40        14.6665    2.8402    6.9343 H           1 A02       0.0267
    108 H41        14.2949    1.0788    8.3438 H           1 A02       0.0285
    109 H42        13.9927   -0.0606    7.0407 H           1 A02       0.0285
    110 H43        12.0467    0.2426    8.5755 H           1 A02       0.0520
    111 H44        11.6906    0.5370    6.8633 H           1 A02       0.0520
    112 H45        10.8432    2.4289    7.4834 H           1 A02       0.1851
    113 H46        17.5326    2.9472    6.0780 H           1 A02       0.1883
    114 H47        18.3449    4.1895    7.5555 H           1 A02       0.0800
    115 H48        19.7050    3.4997    9.4113 H           1 A02       0.0313
    116 H49        20.1349    2.6906    7.9023 H           1 A02       0.0313
    117 H50        19.1779    0.5730    8.6725 H           1 A02       0.0301
    118 H51        18.5565    1.3290   10.1388 H           1 A02       0.0301
    119 H52        20.8247   -0.0713   10.1780 H           1 A02       0.0689
    120 H53        20.5392    1.3210   11.2014 H           1 A02       0.0689
    121 H54        22.0925    2.4066   10.1649 H           1 A02       0.2642
    122 H55        22.8044    0.3264    7.0713 H           1 A02       0.2615
    123 H56        21.5628   -0.1685    7.9837 H           1 A02       0.2615
    124 H57        23.6592    2.8910    8.9384 H           1 A02       0.2615
    125 H58        23.9969    2.0259    7.6130 H           1 A02       0.2615
    126 H59        16.5156    5.2365    8.0491 H           1 A02       0.1883
    127 H60        14.3099    4.5197    9.3485 H           1 A02       0.0800
    128 H61        14.0017    7.0099    9.7892 H           1 A02       0.0313
    129 H62        14.2477    6.5031    8.1317 H           1 A02       0.0313
    130 H63        16.3877    7.4368    7.9370 H           1 A02       0.0301
    131 H64        16.6659    7.4919    9.6745 H           1 A02       0.0301
    132 H65        16.0863    9.6809    8.2329 H           1 A02       0.0689
    133 H66        15.6779    9.5134    9.9303 H           1 A02       0.0689
    134 H67        13.9077    9.0239    7.6792 H           1 A02       0.2642
    135 H68        12.5470   10.6780   10.8345 H           1 A02       0.2615
    136 H69        14.1064   10.2529   10.8694 H           1 A02       0.2615
    137 H70        11.8688    9.6603    7.8100 H           1 A02       0.2615
    138 H71        11.3354   10.3755    9.1768 H           1 A02       0.2615
    139 H72        15.4336    3.9113   12.6398 H           1 A02       0.1815
    140 H73        15.1792    3.1105   11.1789 H           1 A02       0.1815
@<TRIPOS>BOND
     1     2     1  ar
     2     6     1  ar
     3     3     2  ar
     4     4     3  ar
     5     4     5  ar
     6    10     4   1
     7     5     6  ar
     8     8     5   1
     9     6     7   1
    10     9     8   2
    11    10     9   1
    12    19    10   1
    13    15    11   2
    14    16    12   1
    15    17    13   1
    16    18    14   1
    17    14    19   1
    18    15    18   1
    19    27    15  am
    20    16    17   1
    21    18    16   1
    22    17    19   1
    23    20    21   2
    24    20    22   1
    25    28    20  am
    26    22    23   1
    27    23    24   1
    28    24    25   1
    29    25    26   1
    30    26    27   1
    31    29    28   1
    32    30    29   1
    33    29    32   1
    34    30    31   2
    35    44    30  am
    36    32    33   1
    37    33    34   1
    38    34    35   1
    39    35    36   1
    40    37    38   2
    41    39    37   1
    42    37    45  am
    43    40    39   1
    44    41    40   1
    45    42    41   1
    46    43    42   1
    47    43    44   1
    48    45    46   1
    49    46    47   1
    50    46    54   1
    51    47    48   1
    52    48    49   1
    53    49    50   1
    54    50    51  ar
    55    51    52  ar
    56    51    53  ar
    57    54    55   2
    58    54    56  am
    59    56    57   1
    60    57    58   1
    61    57    65   1
    62    58    59   1
    63    59    60   1
    64    60    61   1
    65    61    62  ar
    66    62    63  ar
    67    62    64  ar
    68    65    66   2
    69    65    67  am
    70     2    68   1
    71     7    69   1
    72     7    70   1
    73     9    71   1
    74    12    72   1
    75    13    73   1
    76    16    74   1
    77    17    75   1
    78    18    76   1
    79    19    77   1
    80    22    78   1
    81    22    79   1
    82    23    80   1
    83    23    81   1
    84    24    82   1
    85    24    83   1
    86    25    84   1
    87    25    85   1
    88    26    86   1
    89    26    87   1
    90    27    88   1
    91    28    89   1
    92    29    90   1
    93    32    91   1
    94    32    92   1
    95    33    93   1
    96    33    94   1
    97    34    95   1
    98    34    96   1
    99    35    97   1
   100    35    98   1
   101    36    99   1
   102    36   100   1
   103    36   101   1
   104    39   102   1
   105    39   103   1
   106    40   104   1
   107    40   105   1
   108    41   106   1
   109    41   107   1
   110    42   108   1
   111    42   109   1
   112    43   110   1
   113    43   111   1
   114    44   112   1
   115    45   113   1
   116    46   114   1
   117    47   115   1
   118    47   116   1
   119    48   117   1
   120    48   118   1
   121    49   119   1
   122    49   120   1
   123    50   121   1
   124    52   122   1
   125    52   123   1
   126    53   124   1
   127    53   125   1
   128    56   126   1
   129    57   127   1
   130    58   128   1
   131    58   129   1
   132    59   130   1
   133    59   131   1
   134    60   132   1
   135    60   133   1
   136    61   134   1
   137    63   135   1
   138    63   136   1
   139    64   137   1
   140    64   138   1
   141    67   139   1
   142    67   140   1
@<TRIPOS>SUBSTRUCTURE
     1  A02      2

