@<TRIPOS>MOLECULE
3ag9_ligand_044
   140   142
SMALL
GAST_HUCK
****
This file was generated by PARSER (from files_GN.cpp)

@<TRIPOS>ATOM
      1 N1         16.3726    0.9090    5.1382 N.ar        1 A02      -0.2698
      2 C2         15.6630    0.2160    6.0759 C.ar        1 A02       0.0533
      3 N3         14.8467    0.8754    6.9417 N.ar        1 A02      -0.2714
      4 C4         14.7568    2.2304    6.8915 C.ar        1 A02       0.1613
      5 C5         15.5043    2.9585    5.9678 C.ar        1 A02       0.1045
      6 C6         16.3316    2.2661    5.0678 C.ar        1 A02       0.1298
      7 N6         17.0503    2.9159    4.1355 N.pl3       1 A02      -0.3152
      8 N7         15.2261    4.2590    6.1233 N.2         1 A02      -0.2958
      9 C8         14.3259    4.3348    7.1207 C.2         1 A02       0.1123
     10 N9         14.0186    3.1044    7.5963 N.pl3       1 A02      -0.1918
     11 OAL         9.9483    4.9599    7.3565 O.2         1 A02      -0.3941
     12 OAN        11.6336    4.8173   11.3161 O.3         1 A02      -0.3840
     13 OAO        13.2110    2.6111   11.0387 O.3         1 A02      -0.3834
     14 OBV        11.7526    3.2016    8.0815 O.3         1 A02      -0.3181
     15 CCC        10.0408    4.8164    8.5632 C.2         1 A02       0.2080
     16 CCK        12.0963    4.5423    9.9937 C.3         1 A02       0.1295
     17 CCL        13.2573    3.5332    9.9478 C.3         1 A02       0.1408
     18 CCM        11.0199    3.8795    9.1119 C.3         1 A02       0.1788
     19 CCN        13.0326    2.8011    8.5977 C.3         1 A02       0.2035
     20 CBZ        10.2255   10.2388    7.2570 C.2         1 A02       0.1782
     21 OAI        10.4845    9.5791    6.2593 O.2         1 A02      -0.3969
     22 CBG         8.9151   10.8495    7.3906 C.3         1 A02       0.0374
     23 CAX         8.1041   10.4057    8.6463 C.3         1 A02      -0.0360
     24 CAU         7.6509    8.9196    8.6922 C.3         1 A02      -0.0492
     25 CAW         8.7884    7.8739    8.8453 C.3         1 A02      -0.0326
     26 CBD         8.2442    6.4337    9.0376 C.3         1 A02       0.0310
     27 NBR         9.2598    5.4909    9.3963 N.am        1 A02      -0.2847
     28 NBS        11.1204   10.4076    8.2196 N.am        1 A02      -0.2656
     29 CCI        12.4196    9.8040    8.3156 C.3         1 A02       0.1308
     30 CCB        13.3404   10.3937    7.3492 C.2         1 A02       0.2016
     31 OAK        13.5567   11.5979    7.4065 O.2         1 A02      -0.3945
     32 CBJ        12.9255    9.9634    9.7788 C.3         1 A02      -0.0122
     33 CAZ        14.2598    9.2456   10.1352 C.3         1 A02      -0.0440
     34 CAS        14.1682    7.6938   10.0844 C.3         1 A02      -0.0124
     35 CAR        15.4558    6.9621   10.5218 C.3         1 A02      -0.0354
     36 NAC        16.6739    7.6214   10.0486 N.4         1 A02       0.2185
     37 CCA        15.8633   14.7810    4.4932 C.2         1 A02       0.1782
     38 OAJ        15.7260   14.8688    3.2758 O.2         1 A02      -0.3969
     39 CBH        15.8074   13.4645    5.0978 C.3         1 A02       0.0374
     40 CAY        17.2049   12.8515    5.4210 C.3         1 A02      -0.0360
     41 CAT        17.2806   11.2989    5.3712 C.3         1 A02      -0.0492
     42 CAV        16.2627   10.5265    6.2580 C.3         1 A02      -0.0326
     43 CBC        14.9640   10.0671    5.5348 C.3         1 A02       0.0310
     44 NBQ        13.9610    9.6314    6.4559 N.am        1 A02      -0.2851
     45 NBT        16.0756   15.8747    5.2253 N.am        1 A02      -0.2656
     46 CCJ        16.1850   17.2149    4.6935 C.3         1 A02       0.1310
     47 CBK        16.8897   18.1642    5.7118 C.3         1 A02      -0.0092
     48 CBB        18.4223   17.9383    5.8861 C.3         1 A02      -0.0156
     49 CBF        18.8474   17.0161    7.0672 C.3         1 A02       0.0627
     50 NBP        18.1411   17.1885    8.2607 N.pl3       1 A02      -0.2723
     51 CBX        18.1997   18.1622    9.0845 C.cat       1 A02       0.2882
     52 NAB        18.9534   19.1906    8.9777 N.pl3       1 A02      -0.2849
     53 NAE        17.4416   18.1141   10.1099 N.pl3       1 A02      -0.2849
     54 CCD        14.9051   17.7746    4.2539 C.2         1 A02       0.2039
     55 OAM        13.8551   17.2412    4.5846 O.2         1 A02      -0.3944
     56 N          14.9032   18.8728    3.4986 N.am        1 A02      -0.2637
     57 CA         13.7988   19.6137    2.9641 C.3         1 A02       0.1307
     58 CB         12.6524   19.9606    3.9859 C.3         1 A02      -0.0092
     59 CG         11.2060   19.5585    3.5863 C.3         1 A02      -0.0156
     60 CD         10.1718   19.7443    4.7306 C.3         1 A02       0.0627
     61 NE          8.8903   19.3902    4.2936 N.pl3       1 A02      -0.2723
     62 CZ          7.8807   19.0901    5.0192 C.cat       1 A02       0.2882
     63 NH1         7.8928   19.0273    6.2919 N.pl3       1 A02      -0.2849
     64 NH2         6.7831   18.8366    4.4198 N.pl3       1 A02      -0.2849
     65 C          13.3572   19.0478    1.6885 C.2         1 A02       0.1992
     66 O          13.3021   17.8389    1.5230 O.2         1 A02      -0.3947
     67 NAF        12.8992   19.8128    0.7268 N.am        1 A02      -0.2990
     68 H1         15.7342   -0.8011    6.1160 H           1 A02       0.0996
     69 H2         17.0043    3.8826    4.0748 H           1 A02       0.1820
     70 H3         17.5795    2.4177    3.4905 H           1 A02       0.1820
     71 H4         13.9130    5.2122    7.4424 H           1 A02       0.1349
     72 H5         12.3798    5.2676   11.7647 H           1 A02       0.2102
     73 H6         13.3821    3.1447   11.8417 H           1 A02       0.2101
     74 H7         12.4212    5.4797    9.5387 H           1 A02       0.0673
     75 H8         14.2232    4.0451    9.9829 H           1 A02       0.0678
     76 H9         10.4772    3.1255    9.6907 H           1 A02       0.0869
     77 H10        12.9889    1.7208    8.7688 H           1 A02       0.0998
     78 H11         8.3080   10.6553    6.5014 H           1 A02       0.0502
     79 H12         9.0649   11.9307    7.4461 H           1 A02       0.0502
     80 H13         7.1983   11.0199    8.6662 H           1 A02       0.0290
     81 H14         8.6599   10.6402    9.5570 H           1 A02       0.0290
     82 H15         7.0705    8.6958    7.7920 H           1 A02       0.0267
     83 H16         6.9780    8.8185    9.5494 H           1 A02       0.0267
     84 H17         9.4074    8.1352    9.7085 H           1 A02       0.0285
     85 H18         9.4214    7.8879    7.9548 H           1 A02       0.0285
     86 H19         7.7308    6.1013    8.1293 H           1 A02       0.0520
     87 H20         7.5122    6.4397    9.8470 H           1 A02       0.0520
     88 H21         9.3573    5.3020   10.3447 H           1 A02       0.1851
     89 H22        10.8341   10.9265    8.9860 H           1 A02       0.1883
     90 H23        12.3066    8.7315    8.1290 H           1 A02       0.0800
     91 H24        12.1543    9.5824   10.4549 H           1 A02       0.0312
     92 H25        13.0460   11.0265   10.0068 H           1 A02       0.0312
     93 H26        14.5400    9.5591   11.1446 H           1 A02       0.0269
     94 H27        15.0458    9.5806    9.4578 H           1 A02       0.0269
     95 H28        13.9134    7.3798    9.0705 H           1 A02       0.0317
     96 H29        13.3666    7.3700   10.7494 H           1 A02       0.0317
     97 H30        15.4436    5.9474   10.1201 H           1 A02       0.0813
     98 H31        15.4999    6.8964   11.6110 H           1 A02       0.0813
     99 H32        17.4564    6.9964   10.2377 H           1 A02       0.1994
    100 H33        16.8015    8.4974   10.5622 H           1 A02       0.1994
    101 H34        16.6078    7.7998    9.0432 H           1 A02       0.1994
    102 H35        15.2782   12.7884    4.4165 H           1 A02       0.0502
    103 H36        15.2142   13.5218    6.0156 H           1 A02       0.0502
    104 H37        17.5231   13.1998    6.4051 H           1 A02       0.0290
    105 H38        17.9289   13.2273    4.6933 H           1 A02       0.0290
    106 H39        18.2838   11.0197    5.7100 H           1 A02       0.0267
    107 H40        17.1990   10.9585    4.3347 H           1 A02       0.0267
    108 H41        16.0129   11.1379    7.1257 H           1 A02       0.0285
    109 H42        16.7493    9.6248    6.6358 H           1 A02       0.0285
    110 H43        15.2104    9.2249    4.8847 H           1 A02       0.0520
    111 H44        14.5508   10.8595    4.9075 H           1 A02       0.0520
    112 H45        13.7230    8.6925    6.4324 H           1 A02       0.1851
    113 H46        16.1680   15.7584    6.1863 H           1 A02       0.1883
    114 H47        16.8351   17.1682    3.8100 H           1 A02       0.0800
    115 H48        16.3765   18.1064    6.6717 H           1 A02       0.0313
    116 H49        16.7726   19.1924    5.3637 H           1 A02       0.0313
    117 H50        18.8965   18.9113    6.0313 H           1 A02       0.0301
    118 H51        18.8429   17.5305    4.9600 H           1 A02       0.0301
    119 H52        19.9107   17.1673    7.2691 H           1 A02       0.0689
    120 H53        18.7215   15.9784    6.7560 H           1 A02       0.0689
    121 H54        17.5378   16.5045    8.4855 H           1 A02       0.2642
    122 H55        18.9199   19.8521    9.6371 H           1 A02       0.2615
    123 H56        19.5439   19.2816    8.2613 H           1 A02       0.2615
    124 H57        16.8883   17.3705   10.2435 H           1 A02       0.2615
    125 H58        17.4624   18.8159   10.7264 H           1 A02       0.2615
    126 H59        15.7823   19.2322    3.2832 H           1 A02       0.1883
    127 H60        14.2662   20.5759    2.7199 H           1 A02       0.0800
    128 H61        12.6519   21.0416    4.1456 H           1 A02       0.0313
    129 H62        12.8912   19.5088    4.9517 H           1 A02       0.0313
    130 H63        11.1841   18.5148    3.2699 H           1 A02       0.0301
    131 H64        10.9030   20.1749    2.7364 H           1 A02       0.0301
    132 H65        10.1640   20.7907    5.0529 H           1 A02       0.0689
    133 H66        10.4734   19.1220    5.5773 H           1 A02       0.0689
    134 H67         8.7548   19.3873    3.3695 H           1 A02       0.2642
    135 H68         7.1140   18.7982    6.7617 H           1 A02       0.2615
    136 H69         8.6790   19.1994    6.7669 H           1 A02       0.2615
    137 H70         6.7356   18.8799    3.4858 H           1 A02       0.2615
    138 H71         6.0191   18.6150    4.9106 H           1 A02       0.2615
    139 H72        12.5676   19.4132   -0.0974 H           1 A02       0.1815
    140 H73        12.8759   20.7773    0.8309 H           1 A02       0.1815
@<TRIPOS>BOND
     1     2     1  ar
     2     6     1  ar
     3     3     2  ar
     4     4     3  ar
     5     4     5  ar
     6    10     4   1
     7     5     6  ar
     8     8     5   1
     9     6     7   1
    10     9     8   2
    11    10     9   1
    12    19    10   1
    13    15    11   2
    14    16    12   1
    15    17    13   1
    16    18    14   1
    17    14    19   1
    18    15    18   1
    19    27    15  am
    20    16    17   1
    21    18    16   1
    22    17    19   1
    23    20    21   2
    24    20    22   1
    25    28    20  am
    26    22    23   1
    27    23    24   1
    28    24    25   1
    29    25    26   1
    30    26    27   1
    31    29    28   1
    32    30    29   1
    33    29    32   1
    34    30    31   2
    35    44    30  am
    36    32    33   1
    37    33    34   1
    38    34    35   1
    39    35    36   1
    40    37    38   2
    41    39    37   1
    42    37    45  am
    43    40    39   1
    44    41    40   1
    45    42    41   1
    46    43    42   1
    47    43    44   1
    48    45    46   1
    49    46    47   1
    50    46    54   1
    51    47    48   1
    52    48    49   1
    53    49    50   1
    54    50    51  ar
    55    51    52  ar
    56    51    53  ar
    57    54    55   2
    58    54    56  am
    59    56    57   1
    60    57    58   1
    61    57    65   1
    62    58    59   1
    63    59    60   1
    64    60    61   1
    65    61    62  ar
    66    62    63  ar
    67    62    64  ar
    68    65    66   2
    69    65    67  am
    70     2    68   1
    71     7    69   1
    72     7    70   1
    73     9    71   1
    74    12    72   1
    75    13    73   1
    76    16    74   1
    77    17    75   1
    78    18    76   1
    79    19    77   1
    80    22    78   1
    81    22    79   1
    82    23    80   1
    83    23    81   1
    84    24    82   1
    85    24    83   1
    86    25    84   1
    87    25    85   1
    88    26    86   1
    89    26    87   1
    90    27    88   1
    91    28    89   1
    92    29    90   1
    93    32    91   1
    94    32    92   1
    95    33    93   1
    96    33    94   1
    97    34    95   1
    98    34    96   1
    99    35    97   1
   100    35    98   1
   101    36    99   1
   102    36   100   1
   103    36   101   1
   104    39   102   1
   105    39   103   1
   106    40   104   1
   107    40   105   1
   108    41   106   1
   109    41   107   1
   110    42   108   1
   111    42   109   1
   112    43   110   1
   113    43   111   1
   114    44   112   1
   115    45   113   1
   116    46   114   1
   117    47   115   1
   118    47   116   1
   119    48   117   1
   120    48   118   1
   121    49   119   1
   122    49   120   1
   123    50   121   1
   124    52   122   1
   125    52   123   1
   126    53   124   1
   127    53   125   1
   128    56   126   1
   129    57   127   1
   130    58   128   1
   131    58   129   1
   132    59   130   1
   133    59   131   1
   134    60   132   1
   135    60   133   1
   136    61   134   1
   137    63   135   1
   138    63   136   1
   139    64   137   1
   140    64   138   1
   141    67   139   1
   142    67   140   1
@<TRIPOS>SUBSTRUCTURE
     1  A02      2

