@<TRIPOS>MOLECULE
3ag9_ligand_023
   140   142
SMALL
GAST_HUCK
****
This file was generated by PARSER (from files_GN.cpp)

@<TRIPOS>ATOM
      1 N1         -0.8098    8.2603   16.4893 N.ar        1 A02      -0.2698
      2 C2          0.4303    8.6791   16.8753 C.ar        1 A02       0.0533
      3 N3          1.5278    8.3085   16.1685 N.ar        1 A02      -0.2714
      4 C4          1.3916    7.5111   15.0753 C.ar        1 A02       0.1613
      5 C5          0.1371    7.0669   14.6657 C.ar        1 A02       0.1045
      6 C6         -0.9951    7.4639   15.4020 C.ar        1 A02       0.1298
      7 N6         -2.2322    7.0798   15.0521 N.pl3       1 A02      -0.3152
      8 N7          0.2855    6.3042   13.5746 N.2         1 A02      -0.2958
      9 C8          1.6030    6.2824   13.3111 C.2         1 A02       0.1123
     10 N9          2.2980    7.0106   14.2156 N.pl3       1 A02      -0.1918
     11 OAL         5.2856    7.8182   10.5680 O.2         1 A02      -0.3941
     12 OAN         6.8884    5.5117   13.7173 O.3         1 A02      -0.3840
     13 OAO         5.1893    5.9644   15.7700 O.3         1 A02      -0.3834
     14 OBV         4.1481    7.7460   12.9700 O.3         1 A02      -0.3181
     15 CCC         6.0514    7.5523   11.4950 C.2         1 A02       0.2080
     16 CCK         5.5778    5.9372   13.3395 C.3         1 A02       0.1295
     17 CCL         4.5522    5.9359   14.4902 C.3         1 A02       0.1408
     18 CCM         5.5333    7.3968   12.8394 C.3         1 A02       0.1788
     19 CCN         3.7170    7.2218   14.2359 C.3         1 A02       0.2035
     20 CBZ         9.7428   11.1999    6.9430 C.2         1 A02       0.1782
     21 OAI        10.1239   10.9435    5.8043 O.2         1 A02      -0.3969
     22 CBG         8.3242   11.3981    7.1910 C.3         1 A02       0.0374
     23 CAX         7.5782   10.2206    7.8836 C.3         1 A02      -0.0360
     24 CAU         7.7748   10.0733    9.4248 C.3         1 A02      -0.0492
     25 CAW         8.7406    8.9379    9.8713 C.3         1 A02      -0.0326
     26 CBD         8.0728    7.5512   10.0711 C.3         1 A02       0.0310
     27 NBR         7.3608    7.4749   11.3057 N.am        1 A02      -0.2847
     28 NBS        10.6119   11.4368    7.9163 N.am        1 A02      -0.2656
     29 CCI        12.0501   11.4769    7.8710 C.3         1 A02       0.1308
     30 CCB        12.7264   10.1800    7.9505 C.2         1 A02       0.2016
     31 OAK        12.1784    9.1586    7.5648 O.2         1 A02      -0.3945
     32 CBJ        12.6185   12.3318    6.6884 C.3         1 A02      -0.0122
     33 CAZ        11.8178   13.6239    6.3239 C.3         1 A02      -0.0440
     34 CAS        12.6952   14.8729    6.0186 C.3         1 A02      -0.0124
     35 CAR        13.8387   14.6688    4.9912 C.3         1 A02      -0.0354
     36 NAC        14.9927   15.5063    5.3446 N.4         1 A02       0.2185
     37 CCA        14.2066    4.2141    8.9933 C.2         1 A02       0.1782
     38 OAJ        14.7449    3.4602    9.7930 O.2         1 A02      -0.3969
     39 CBH        13.8928    5.5578    9.4490 C.3         1 A02       0.0374
     40 CAY        15.1332    6.2441   10.0873 C.3         1 A02      -0.0360
     41 CAT        14.8380    7.6400   10.7226 C.3         1 A02      -0.0492
     42 CAV        15.4206    8.8520    9.9377 C.3         1 A02      -0.0326
     43 CBC        14.8751    9.0514    8.4917 C.3         1 A02       0.0310
     44 NBQ        13.9710   10.1508    8.4210 N.am        1 A02      -0.2851
     45 NBT        13.9201    3.8476    7.7487 N.am        1 A02      -0.2656
     46 CCJ        14.1676    2.5890    7.0924 C.3         1 A02       0.1310
     47 CBK        13.2744    1.4251    7.6302 C.3         1 A02      -0.0092
     48 CBB        11.7314    1.6042    7.5106 C.3         1 A02      -0.0156
     49 CBF        11.1221    2.9276    8.0658 C.3         1 A02       0.0627
     50 NBP        10.9751    3.8955    7.0637 N.pl3       1 A02      -0.2723
     51 CBX        10.2706    4.9698    7.1134 C.cat       1 A02       0.2882
     52 NAB         9.6404    5.3864    8.1437 N.pl3       1 A02      -0.2849
     53 NAE        10.1799    5.6630    6.0388 N.pl3       1 A02      -0.2849
     54 CCD        15.5993    2.2735    7.0892 C.2         1 A02       0.2039
     55 OAM        16.2660    2.5631    6.1035 O.2         1 A02      -0.3944
     56 N          16.1768    1.7617    8.1649 N.am        1 A02      -0.2637
     57 CA         17.5798    1.5437    8.4117 C.3         1 A02       0.1307
     58 CB         17.7532    0.1412    9.0961 C.3         1 A02      -0.0092
     59 CG         18.9015   -0.0486   10.1467 C.3         1 A02      -0.0156
     60 CD         20.2913   -0.4639    9.5697 C.3         1 A02       0.0627
     61 NE         21.1350    0.6364    9.3374 N.pl3       1 A02      -0.2723
     62 CZ         22.0701    0.7139    8.4673 C.cat       1 A02       0.2882
     63 NH1        22.3104   -0.1657    7.5574 N.pl3       1 A02      -0.2849
     64 NH2        22.8457    1.7360    8.4858 N.pl3       1 A02      -0.2849
     65 C          18.0119    2.6887    9.2101 C.2         1 A02       0.1992
     66 O          17.6042    2.8185   10.3507 O.2         1 A02      -0.3947
     67 NAF        18.7875    3.6352    8.7172 N.am        1 A02      -0.2990
     68 H1          0.5320    9.2769   17.6969 H           1 A02       0.0996
     69 H2         -2.3694    6.5186   14.2729 H           1 A02       0.1820
     70 H3         -2.9962    7.3709   15.5754 H           1 A02       0.1820
     71 H4          2.0169    5.7780   12.5226 H           1 A02       0.1349
     72 H5          7.1667    6.1177   14.4364 H           1 A02       0.2102
     73 H6          4.4829    6.1905   16.4106 H           1 A02       0.2101
     74 H7          5.2222    5.2627   12.5522 H           1 A02       0.0673
     75 H8          3.9399    5.0316   14.4353 H           1 A02       0.0678
     76 H9          6.1109    8.0470   13.5112 H           1 A02       0.0869
     77 H10         3.9715    7.9700   14.9967 H           1 A02       0.0998
     78 H11         7.8167   11.5881    6.2393 H           1 A02       0.0502
     79 H12         8.1969   12.3014    7.7957 H           1 A02       0.0502
     80 H13         7.8427    9.2932    7.3737 H           1 A02       0.0290
     81 H14         6.5094   10.3781    7.7032 H           1 A02       0.0290
     82 H15         6.8037    9.9016    9.8972 H           1 A02       0.0267
     83 H16         8.1395   11.0190    9.8258 H           1 A02       0.0267
     84 H17         9.2169    9.2334   10.8101 H           1 A02       0.0285
     85 H18         9.5301    8.8375    9.1289 H           1 A02       0.0285
     86 H19         8.8588    6.7962   10.1257 H           1 A02       0.0520
     87 H20         7.4422    7.2953    9.2161 H           1 A02       0.0520
     88 H21         7.9026    7.3414   12.1029 H           1 A02       0.1851
     89 H22        10.2338   11.6565    8.7836 H           1 A02       0.1883
     90 H23        12.3270   12.0125    8.7841 H           1 A02       0.0800
     91 H24        12.6993   11.7102    5.7915 H           1 A02       0.0312
     92 H25        13.6397   12.6267    6.9572 H           1 A02       0.0312
     93 H26        11.1629   13.8977    7.1559 H           1 A02       0.0269
     94 H27        11.1738   13.4196    5.4626 H           1 A02       0.0269
     95 H28        13.1255   15.2238    6.9606 H           1 A02       0.0317
     96 H29        12.0432   15.6652    5.6379 H           1 A02       0.0317
     97 H30        13.4988   14.9351    3.9863 H           1 A02       0.0813
     98 H31        14.1732   13.6269    4.9749 H           1 A02       0.0813
     99 H32        15.7566   15.3376    4.6872 H           1 A02       0.1994
    100 H33        15.2984   15.2773    6.2951 H           1 A02       0.1994
    101 H34        14.7247   16.4914    5.3048 H           1 A02       0.1994
    102 H35        13.0862    5.5122   10.1871 H           1 A02       0.0502
    103 H36        13.5240    6.1616    8.6177 H           1 A02       0.0502
    104 H37        15.9225    6.3426    9.3352 H           1 A02       0.0290
    105 H38        15.5246    5.5822   10.8669 H           1 A02       0.0290
    106 H39        15.2853    7.6573   11.7220 H           1 A02       0.0267
    107 H40        13.7619    7.7897   10.8592 H           1 A02       0.0267
    108 H41        16.5078    8.7330    9.8960 H           1 A02       0.0285
    109 H42        15.2368    9.7589   10.5236 H           1 A02       0.0285
    110 H43        14.4398    8.1319    8.1025 H           1 A02       0.0520
    111 H44        15.7140    9.3011    7.8373 H           1 A02       0.0520
    112 H45        14.3311   11.0017    8.7140 H           1 A02       0.1851
    113 H46        13.4869    4.5163    7.1974 H           1 A02       0.1883
    114 H47        13.8560    2.7408    6.0496 H           1 A02       0.0800
    115 H48        13.5034    1.2284    8.6808 H           1 A02       0.0313
    116 H49        13.5163    0.5075    7.0818 H           1 A02       0.0313
    117 H50        11.2847    0.7893    8.0896 H           1 A02       0.0301
    118 H51        11.4168    1.4603    6.4703 H           1 A02       0.0301
    119 H52        11.7449    3.3048    8.8805 H           1 A02       0.0689
    120 H53        10.1317    2.7110    8.4795 H           1 A02       0.0689
    121 H54        11.4030    3.7213    6.2486 H           1 A02       0.2642
    122 H55         9.1381    6.1754    8.0955 H           1 A02       0.2615
    123 H56         9.6785    4.9069    8.9469 H           1 A02       0.2615
    124 H57        10.6000    5.3647    5.2589 H           1 A02       0.2615
    125 H58         9.6693    6.4463    6.0296 H           1 A02       0.2615
    126 H59        15.5868    1.6026    8.9172 H           1 A02       0.1883
    127 H60        18.1445    1.5285    7.4708 H           1 A02       0.0800
    128 H61        17.8578   -0.6147    8.3064 H           1 A02       0.0313
    129 H62        16.8195   -0.1145    9.6200 H           1 A02       0.0313
    130 H63        18.5716   -0.8727   10.8086 H           1 A02       0.0301
    131 H64        18.9845    0.8819   10.7504 H           1 A02       0.0301
    132 H65        20.1471   -1.0967    8.6759 H           1 A02       0.0689
    133 H66        20.7883   -1.0770   10.3399 H           1 A02       0.0689
    134 H67        21.0776    1.3460    9.9479 H           1 A02       0.2642
    135 H68        23.0194   -0.0294    6.9639 H           1 A02       0.2615
    136 H69        21.7846   -0.9321    7.4893 H           1 A02       0.2615
    137 H70        22.7229    2.4024    9.1303 H           1 A02       0.2615
    138 H71        23.5350    1.8042    7.8583 H           1 A02       0.2615
    139 H72        18.9615    4.4240    9.2641 H           1 A02       0.1815
    140 H73        19.1283    3.5825    7.8031 H           1 A02       0.1815
@<TRIPOS>BOND
     1     2     1  ar
     2     6     1  ar
     3     3     2  ar
     4     4     3  ar
     5     4     5  ar
     6    10     4   1
     7     5     6  ar
     8     8     5   1
     9     6     7   1
    10     9     8   2
    11    10     9   1
    12    19    10   1
    13    15    11   2
    14    16    12   1
    15    17    13   1
    16    18    14   1
    17    14    19   1
    18    15    18   1
    19    27    15  am
    20    16    17   1
    21    18    16   1
    22    17    19   1
    23    20    21   2
    24    20    22   1
    25    28    20  am
    26    22    23   1
    27    23    24   1
    28    24    25   1
    29    25    26   1
    30    26    27   1
    31    29    28   1
    32    30    29   1
    33    29    32   1
    34    30    31   2
    35    44    30  am
    36    32    33   1
    37    33    34   1
    38    34    35   1
    39    35    36   1
    40    37    38   2
    41    39    37   1
    42    37    45  am
    43    40    39   1
    44    41    40   1
    45    42    41   1
    46    43    42   1
    47    43    44   1
    48    45    46   1
    49    46    47   1
    50    46    54   1
    51    47    48   1
    52    48    49   1
    53    49    50   1
    54    50    51  ar
    55    51    52  ar
    56    51    53  ar
    57    54    55   2
    58    54    56  am
    59    56    57   1
    60    57    58   1
    61    57    65   1
    62    58    59   1
    63    59    60   1
    64    60    61   1
    65    61    62  ar
    66    62    63  ar
    67    62    64  ar
    68    65    66   2
    69    65    67  am
    70     2    68   1
    71     7    69   1
    72     7    70   1
    73     9    71   1
    74    12    72   1
    75    13    73   1
    76    16    74   1
    77    17    75   1
    78    18    76   1
    79    19    77   1
    80    22    78   1
    81    22    79   1
    82    23    80   1
    83    23    81   1
    84    24    82   1
    85    24    83   1
    86    25    84   1
    87    25    85   1
    88    26    86   1
    89    26    87   1
    90    27    88   1
    91    28    89   1
    92    29    90   1
    93    32    91   1
    94    32    92   1
    95    33    93   1
    96    33    94   1
    97    34    95   1
    98    34    96   1
    99    35    97   1
   100    35    98   1
   101    36    99   1
   102    36   100   1
   103    36   101   1
   104    39   102   1
   105    39   103   1
   106    40   104   1
   107    40   105   1
   108    41   106   1
   109    41   107   1
   110    42   108   1
   111    42   109   1
   112    43   110   1
   113    43   111   1
   114    44   112   1
   115    45   113   1
   116    46   114   1
   117    47   115   1
   118    47   116   1
   119    48   117   1
   120    48   118   1
   121    49   119   1
   122    49   120   1
   123    50   121   1
   124    52   122   1
   125    52   123   1
   126    53   124   1
   127    53   125   1
   128    56   126   1
   129    57   127   1
   130    58   128   1
   131    58   129   1
   132    59   130   1
   133    59   131   1
   134    60   132   1
   135    60   133   1
   136    61   134   1
   137    63   135   1
   138    63   136   1
   139    64   137   1
   140    64   138   1
   141    67   139   1
   142    67   140   1
@<TRIPOS>SUBSTRUCTURE
     1  A02      2

