@<TRIPOS>MOLECULE
3ag9_ligand_047
   140   142
SMALL
GAST_HUCK
****
This file was generated by PARSER (from files_GN.cpp)

@<TRIPOS>ATOM
      1 N1         11.0008    4.6996   14.7464 N.ar        1 A02      -0.2698
      2 C2         10.3304    5.0219   13.6049 C.ar        1 A02       0.0533
      3 N3          8.9853    5.2063   13.6344 N.ar        1 A02      -0.2714
      4 C4          8.3000    5.0670   14.7982 C.ar        1 A02       0.1613
      5 C5          8.9676    4.7245   15.9742 C.ar        1 A02       0.1045
      6 C6         10.3609    4.5448   15.9392 C.ar        1 A02       0.1298
      7 N6         11.0649    4.2220   17.0362 N.pl3       1 A02      -0.3152
      8 N7          8.0606    4.6244   16.9573 N.2         1 A02      -0.2958
      9 C8          6.8693    4.8957   16.3988 C.2         1 A02       0.1123
     10 N9          6.9891    5.1848   15.0827 N.pl3       1 A02      -0.1918
     11 OAL         6.2129    8.4917   10.7302 O.2         1 A02      -0.3941
     12 OAN         4.1722    8.7052   13.7225 O.3         1 A02      -0.3840
     13 OAO         3.5411    6.1266   14.4928 O.3         1 A02      -0.3834
     14 OBV         6.3929    5.9587   12.9112 O.3         1 A02      -0.3181
     15 CCC         6.6194    8.0649   11.8055 C.2         1 A02       0.2080
     16 CCK         5.2582    7.7963   13.8999 C.3         1 A02       0.1295
     17 CCL         4.8948    6.5447   14.7096 C.3         1 A02       0.1408
     18 CCM         5.7417    7.1866   12.5691 C.3         1 A02       0.1788
     19 CCN         5.9002    5.4825   14.1813 C.3         1 A02       0.2035
     20 CBZ        13.6870    8.4263    9.9017 C.2         1 A02       0.1782
     21 OAI        12.8130    8.1779    9.0828 O.2         1 A02      -0.3969
     22 CBG        13.3258    9.1755   11.0950 C.3         1 A02       0.0374
     23 CAX        12.5524    8.3313   12.1628 C.3         1 A02      -0.0360
     24 CAU        11.1302    8.8431   12.5249 C.3         1 A02      -0.0492
     25 CAW        10.1028    8.7543   11.3631 C.3         1 A02      -0.0326
     26 CBD         8.7146    9.3721   11.6970 C.3         1 A02       0.0310
     27 NBR         7.8089    8.4234   12.2824 N.am        1 A02      -0.2847
     28 NBS        14.9325    7.9894    9.7464 N.am        1 A02      -0.2656
     29 CCI        15.4716    7.2368    8.6428 C.3         1 A02       0.1308
     30 CCB        16.5407    8.0098    8.0150 C.2         1 A02       0.2016
     31 OAK        17.3655    8.5793    8.7235 O.2         1 A02      -0.3945
     32 CBJ        16.0216    5.8514    9.1172 C.3         1 A02      -0.0122
     33 CAZ        14.9815    4.7039    9.2597 C.3         1 A02      -0.0440
     34 CAS        14.0534    4.7335   10.5015 C.3         1 A02      -0.0124
     35 CAR        14.8030    4.8617   11.8508 C.3         1 A02      -0.0354
     36 NAC        13.8836    4.6805   12.9791 N.4         1 A02       0.2185
     37 CCA        16.6895   13.4469    6.2990 C.2         1 A02       0.1782
     38 OAJ        17.8987   13.3331    6.4541 O.2         1 A02      -0.3969
     39 CBH        15.8458   12.3765    6.8018 C.3         1 A02       0.0374
     40 CAY        15.9581   11.0506    5.9868 C.3         1 A02      -0.0360
     41 CAT        17.3541   10.7702    5.3564 C.3         1 A02      -0.0492
     42 CAV        17.5711    9.3225    4.8333 C.3         1 A02      -0.0326
     43 CBC        17.8692    8.2907    5.9515 C.3         1 A02       0.0310
     44 NBQ        16.7082    7.9229    6.7003 N.am        1 A02      -0.2851
     45 NBT        16.1622   14.4559    5.6132 N.am        1 A02      -0.2656
     46 CCJ        16.8645   15.4486    4.8458 C.3         1 A02       0.1310
     47 CBK        16.8659   16.8432    5.5659 C.3         1 A02      -0.0092
     48 CBB        18.2751   17.3995    5.9284 C.3         1 A02      -0.0156
     49 CBF        18.9112   16.8319    7.2273 C.3         1 A02       0.0627
     50 NBP        18.1386   17.0767    8.3663 N.pl3       1 A02      -0.2723
     51 CBX        18.1555   18.1150    9.1168 C.cat       1 A02       0.2882
     52 NAB        18.9161   19.1349    8.9617 N.pl3       1 A02      -0.2849
     53 NAE        17.3625   18.1420   10.1124 N.pl3       1 A02      -0.2849
     54 CCD        16.2272   15.4731    3.5302 C.2         1 A02       0.2039
     55 OAM        15.0813   15.8957    3.4240 O.2         1 A02      -0.3944
     56 N          16.8886   15.0244    2.4713 N.am        1 A02      -0.2637
     57 CA         16.4311   14.9581    1.1065 C.3         1 A02       0.1307
     58 CB         17.4368   14.1366    0.2190 C.3         1 A02      -0.0092
     59 CG         18.9679   14.3481    0.4310 C.3         1 A02      -0.0156
     60 CD         19.4239   15.8308    0.3654 C.3         1 A02       0.0627
     61 NE         20.6594   15.9805    1.0138 N.pl3       1 A02      -0.2723
     62 CZ         20.9344   16.7118    2.0269 C.cat       1 A02       0.2882
     63 NH1        20.1226   17.4822    2.6415 N.pl3       1 A02      -0.2849
     64 NH2        22.1285   16.6684    2.4883 N.pl3       1 A02      -0.2849
     65 C          16.0766   16.2506    0.5157 C.2         1 A02       0.1992
     66 O          15.4127   16.2765   -0.5118 O.2         1 A02      -0.3947
     67 NAF        16.3605   17.4133    1.0601 N.am        1 A02      -0.2990
     68 H1         10.8344    5.1205   12.7245 H           1 A02       0.0996
     69 H2         10.6172    4.1069   17.8905 H           1 A02       0.1820
     70 H3         12.0269    4.1035   16.9785 H           1 A02       0.1820
     71 H4          5.9940    4.8972   16.9243 H           1 A02       0.1349
     72 H5          4.1611    9.2487   14.5386 H           1 A02       0.2102
     73 H6          3.4205    6.0853   13.5199 H           1 A02       0.2101
     74 H7          6.0743    8.3233   14.4068 H           1 A02       0.0673
     75 H8          5.0098    6.7460   15.7777 H           1 A02       0.0678
     76 H9          4.8646    6.9186   11.9665 H           1 A02       0.0869
     77 H10         5.3705    4.5442   13.9936 H           1 A02       0.0998
     78 H11        12.7444   10.0490   10.7893 H           1 A02       0.0502
     79 H12        14.2326    9.5747   11.5599 H           1 A02       0.0502
     80 H13        13.1406    8.3324   13.0853 H           1 A02       0.0290
     81 H14        12.4685    7.2877   11.8548 H           1 A02       0.0290
     82 H15        11.2098    9.8809   12.8607 H           1 A02       0.0267
     83 H16        10.7535    8.2527   13.3651 H           1 A02       0.0267
     84 H17         9.9809    7.7090   11.0649 H           1 A02       0.0285
     85 H18        10.5103    9.2872   10.5019 H           1 A02       0.0285
     86 H19         8.3018    9.8011   10.7807 H           1 A02       0.0520
     87 H20         8.8255   10.2010   12.3992 H           1 A02       0.0520
     88 H21         8.0788    8.0353   13.1299 H           1 A02       0.1851
     89 H22        15.5584    8.2087   10.4595 H           1 A02       0.1883
     90 H23        14.6962    7.0431    7.8970 H           1 A02       0.0800
     91 H24        16.5584    5.9768   10.0593 H           1 A02       0.0312
     92 H25        16.7558    5.4923    8.3861 H           1 A02       0.0312
     93 H26        15.5252    3.7543    9.2738 H           1 A02       0.0269
     94 H27        14.3545    4.6930    8.3626 H           1 A02       0.0269
     95 H28        13.4850    3.7984   10.5104 H           1 A02       0.0317
     96 H29        13.3363    5.5441   10.4023 H           1 A02       0.0317
     97 H30        15.2610    5.8492   11.9361 H           1 A02       0.0813
     98 H31        15.5846    4.1011   11.9226 H           1 A02       0.0813
     99 H32        14.3947    4.7401   13.8586 H           1 A02       0.1994
    100 H33        13.4345    3.7645   12.9127 H           1 A02       0.1994
    101 H34        13.1674    5.4095   12.9591 H           1 A02       0.1994
    102 H35        14.7988   12.6976    6.7960 H           1 A02       0.0502
    103 H36        16.1036   12.1811    7.8489 H           1 A02       0.0502
    104 H37        15.2129   11.0683    5.1833 H           1 A02       0.0290
    105 H38        15.6921   10.2292    6.6546 H           1 A02       0.0290
    106 H39        18.1343   11.0076    6.0829 H           1 A02       0.0267
    107 H40        17.4823   11.4558    4.5135 H           1 A02       0.0267
    108 H41        18.4439    9.3346    4.1737 H           1 A02       0.0285
    109 H42        16.7190    8.9963    4.2285 H           1 A02       0.0285
    110 H43        18.6747    8.6677    6.5911 H           1 A02       0.0520
    111 H44        18.2376    7.3717    5.4888 H           1 A02       0.0520
    112 H45        16.0124    7.4665    6.2015 H           1 A02       0.1851
    113 H46        15.1914   14.4918    5.5739 H           1 A02       0.1883
    114 H47        17.9063   15.1401    4.7083 H           1 A02       0.0800
    115 H48        16.2633   16.7992    6.4768 H           1 A02       0.0313
    116 H49        16.3971   17.5955    4.9243 H           1 A02       0.0313
    117 H50        18.2036   18.4863    6.0234 H           1 A02       0.0301
    118 H51        18.9531   17.2019    5.0940 H           1 A02       0.0301
    119 H52        19.9162   17.2462    7.3535 H           1 A02       0.0689
    120 H53        19.0324   15.7542    7.1312 H           1 A02       0.0689
    121 H54        17.5377   16.4042    8.6147 H           1 A02       0.2642
    122 H55        18.8568   19.8390    9.5736 H           1 A02       0.2615
    123 H56        19.5203   19.1788    8.2515 H           1 A02       0.2615
    124 H57        16.7906   17.4191   10.2737 H           1 A02       0.2615
    125 H58        17.3530   18.8895   10.6755 H           1 A02       0.2615
    126 H59        17.7690   14.6709    2.6504 H           1 A02       0.1883
    127 H60        15.5008   14.3801    1.1326 H           1 A02       0.0800
    128 H61        17.2220   14.3000   -0.8423 H           1 A02       0.0313
    129 H62        17.2454   13.0754    0.4063 H           1 A02       0.0313
    130 H63        19.5007   13.7896   -0.3470 H           1 A02       0.0301
    131 H64        19.2681   13.9042    1.3861 H           1 A02       0.0301
    132 H65        18.6554   16.4853    0.7847 H           1 A02       0.0689
    133 H66        19.5539   16.1174   -0.6833 H           1 A02       0.0689
    134 H67        21.3616   15.4488    0.6883 H           1 A02       0.2642
    135 H68        20.4251   17.9773    3.3745 H           1 A02       0.2615
    136 H69        19.2335   17.5586    2.3664 H           1 A02       0.2615
    137 H70        22.7662   16.1223    2.0830 H           1 A02       0.2615
    138 H71        22.3454   17.1676    3.2483 H           1 A02       0.2615
    139 H72        16.0452   18.2302    0.6446 H           1 A02       0.1815
    140 H73        16.8684   17.4627    1.8829 H           1 A02       0.1815
@<TRIPOS>BOND
     1     2     1  ar
     2     6     1  ar
     3     3     2  ar
     4     4     3  ar
     5     4     5  ar
     6    10     4   1
     7     5     6  ar
     8     8     5   1
     9     6     7   1
    10     9     8   2
    11    10     9   1
    12    19    10   1
    13    15    11   2
    14    16    12   1
    15    17    13   1
    16    18    14   1
    17    14    19   1
    18    15    18   1
    19    27    15  am
    20    16    17   1
    21    18    16   1
    22    17    19   1
    23    20    21   2
    24    20    22   1
    25    28    20  am
    26    22    23   1
    27    23    24   1
    28    24    25   1
    29    25    26   1
    30    26    27   1
    31    29    28   1
    32    30    29   1
    33    29    32   1
    34    30    31   2
    35    44    30  am
    36    32    33   1
    37    33    34   1
    38    34    35   1
    39    35    36   1
    40    37    38   2
    41    39    37   1
    42    37    45  am
    43    40    39   1
    44    41    40   1
    45    42    41   1
    46    43    42   1
    47    43    44   1
    48    45    46   1
    49    46    47   1
    50    46    54   1
    51    47    48   1
    52    48    49   1
    53    49    50   1
    54    50    51  ar
    55    51    52  ar
    56    51    53  ar
    57    54    55   2
    58    54    56  am
    59    56    57   1
    60    57    58   1
    61    57    65   1
    62    58    59   1
    63    59    60   1
    64    60    61   1
    65    61    62  ar
    66    62    63  ar
    67    62    64  ar
    68    65    66   2
    69    65    67  am
    70     2    68   1
    71     7    69   1
    72     7    70   1
    73     9    71   1
    74    12    72   1
    75    13    73   1
    76    16    74   1
    77    17    75   1
    78    18    76   1
    79    19    77   1
    80    22    78   1
    81    22    79   1
    82    23    80   1
    83    23    81   1
    84    24    82   1
    85    24    83   1
    86    25    84   1
    87    25    85   1
    88    26    86   1
    89    26    87   1
    90    27    88   1
    91    28    89   1
    92    29    90   1
    93    32    91   1
    94    32    92   1
    95    33    93   1
    96    33    94   1
    97    34    95   1
    98    34    96   1
    99    35    97   1
   100    35    98   1
   101    36    99   1
   102    36   100   1
   103    36   101   1
   104    39   102   1
   105    39   103   1
   106    40   104   1
   107    40   105   1
   108    41   106   1
   109    41   107   1
   110    42   108   1
   111    42   109   1
   112    43   110   1
   113    43   111   1
   114    44   112   1
   115    45   113   1
   116    46   114   1
   117    47   115   1
   118    47   116   1
   119    48   117   1
   120    48   118   1
   121    49   119   1
   122    49   120   1
   123    50   121   1
   124    52   122   1
   125    52   123   1
   126    53   124   1
   127    53   125   1
   128    56   126   1
   129    57   127   1
   130    58   128   1
   131    58   129   1
   132    59   130   1
   133    59   131   1
   134    60   132   1
   135    60   133   1
   136    61   134   1
   137    63   135   1
   138    63   136   1
   139    64   137   1
   140    64   138   1
   141    67   139   1
   142    67   140   1
@<TRIPOS>SUBSTRUCTURE
     1  A02      2

