@<TRIPOS>MOLECULE
3ag9_ligand_040
   140   142
SMALL
GAST_HUCK
****
This file was generated by PARSER (from files_GN.cpp)

@<TRIPOS>ATOM
      1 N1          7.7834    8.9467   10.7279 N.ar        1 A02      -0.2698
      2 C2          8.5771    9.0466   11.8291 C.ar        1 A02       0.0533
      3 N3          8.9400    7.9283   12.5140 N.ar        1 A02      -0.2714
      4 C4          8.5081    6.7080   12.0937 C.ar        1 A02       0.1613
      5 C5          7.7022    6.5852   10.9669 C.ar        1 A02       0.1045
      6 C6          7.3326    7.7486   10.2709 C.ar        1 A02       0.1298
      7 N6          6.5470    7.6906    9.1821 N.pl3       1 A02      -0.3152
      8 N7          7.4316    5.2874   10.7790 N.2         1 A02      -0.2958
      9 C8          8.0536    4.6231   11.7687 C.2         1 A02       0.1123
     10 N9          8.7207    5.4738   12.5828 N.pl3       1 A02      -0.1918
     11 OAL        13.4059    3.7392   13.4501 O.2         1 A02      -0.3941
     12 OAN        10.6724    3.9617   16.3491 O.3         1 A02      -0.3840
     13 OAO         8.6965    3.0227   14.6458 O.3         1 A02      -0.3834
     14 OBV        10.7868    5.7924   13.6261 O.3         1 A02      -0.3181
     15 CCC        12.9328    4.8639   13.5778 C.2         1 A02       0.2080
     16 CCK        11.0339    3.8066   14.9712 C.3         1 A02       0.1295
     17 CCL         9.8011    3.7041   14.0581 C.3         1 A02       0.1408
     18 CCM        11.7535    5.0748   14.4159 C.3         1 A02       0.1788
     19 CCN         9.4999    5.1845   13.7548 C.3         1 A02       0.2035
     20 CBZ        14.9178    3.2370    8.6191 C.2         1 A02       0.1782
     21 OAI        15.8367    4.0396    8.5204 O.2         1 A02      -0.3969
     22 CBG        14.3056    3.0426    9.9250 C.3         1 A02       0.0374
     23 CAX        12.9790    3.8158   10.1439 C.3         1 A02      -0.0360
     24 CAU        13.0372    5.3677   10.0498 C.3         1 A02      -0.0492
     25 CAW        14.2932    6.0999   10.6152 C.3         1 A02      -0.0326
     26 CBD        14.6432    5.8704   12.1071 C.3         1 A02       0.0310
     27 NBR        13.4893    5.9005   12.9556 N.am        1 A02      -0.2847
     28 NBS        14.5597    2.4459    7.6149 N.am        1 A02      -0.2656
     29 CCI        15.1516    2.2940    6.3044 C.3         1 A02       0.1308
     30 CCB        15.7847    3.5105    5.7694 C.2         1 A02       0.2016
     31 OAK        16.9619    3.5007    5.4283 O.2         1 A02      -0.3945
     32 CBJ        15.9656    0.9431    6.1789 C.3         1 A02      -0.0122
     33 CAZ        16.3444    0.1396    7.4635 C.3         1 A02      -0.0440
     34 CAS        17.3929    0.8081    8.3941 C.3         1 A02      -0.0124
     35 CAR        18.0288   -0.2035    9.3837 C.3         1 A02      -0.0354
     36 NAC        19.2169    0.3646   10.0413 N.4         1 A02       0.2185
     37 CCA        16.1404   11.6070    5.4605 C.2         1 A02       0.1782
     38 OAJ        16.8630   12.0074    6.3671 O.2         1 A02      -0.3969
     39 CBH        16.5409   10.4336    4.7075 C.3         1 A02       0.0374
     40 CAY        15.6866    9.1716    5.0075 C.3         1 A02      -0.0360
     41 CAT        16.2904    8.2696    6.1223 C.3         1 A02      -0.0492
     42 CAV        15.5103    6.9584    6.4151 C.3         1 A02      -0.0326
     43 CBC        15.5380    5.9184    5.2628 C.3         1 A02       0.0310
     44 NBQ        15.0802    4.6386    5.7125 N.am        1 A02      -0.2851
     45 NBT        15.0585   12.2784    5.0820 N.am        1 A02      -0.2656
     46 CCJ        14.5526   13.5051    5.6338 C.3         1 A02       0.1310
     47 CBK        12.9978   13.4569    5.7390 C.3         1 A02      -0.0092
     48 CBB        12.4531   12.2477    6.5432 C.3         1 A02      -0.0156
     49 CBF        10.9440   12.3774    6.8618 C.3         1 A02       0.0627
     50 NBP        10.5403   11.4795    7.8480 N.pl3       1 A02      -0.2723
     51 CBX        10.2857   10.2254    7.7295 C.cat       1 A02       0.2882
     52 NAB        10.3110    9.5648    6.6304 N.pl3       1 A02      -0.2849
     53 NAE         9.9813    9.6019    8.8031 N.pl3       1 A02      -0.2849
     54 CCD        14.9796   14.6109    4.7872 C.2         1 A02       0.2039
     55 OAM        14.7745   14.5429    3.5788 O.2         1 A02      -0.3944
     56 N          15.5670   15.6843    5.3206 N.am        1 A02      -0.2637
     57 CA         16.0025   16.8730    4.6463 C.3         1 A02       0.1307
     58 CB         17.5579   16.8901    4.4832 C.3         1 A02      -0.0092
     59 CG         18.4715   16.4588    5.6734 C.3         1 A02      -0.0156
     60 CD         18.8442   17.5492    6.7227 C.3         1 A02       0.0627
     61 NE         18.1279   17.4539    7.9252 N.pl3       1 A02      -0.2723
     62 CZ         18.1776   18.2876    8.8999 C.cat       1 A02       0.2882
     63 NH1        18.9059   19.3395    8.9240 N.pl3       1 A02      -0.2849
     64 NH2        17.4577   18.0811    9.9357 N.pl3       1 A02      -0.2849
     65 C          15.4584   18.0388    5.3223 C.2         1 A02       0.1992
     66 O          15.9551   18.4680    6.3549 O.2         1 A02      -0.3947
     67 NAF        14.3827   18.6657    4.8858 N.am        1 A02      -0.2990
     68 H1          8.8995    9.9621   12.1457 H           1 A02       0.0996
     69 H2          6.2169    6.8358    8.8669 H           1 A02       0.1820
     70 H3          6.3068    8.5054    8.7161 H           1 A02       0.1820
     71 H4          8.0074    3.6075   11.8740 H           1 A02       0.1349
     72 H5         10.2190    4.8280   16.4218 H           1 A02       0.2102
     73 H6          8.5476    3.4658   15.5077 H           1 A02       0.2101
     74 H7         11.6291    2.8922   14.8984 H           1 A02       0.0673
     75 H8         10.0914    3.1820   13.1402 H           1 A02       0.0678
     76 H9         12.0521    5.7192   15.2497 H           1 A02       0.0869
     77 H10         8.9995    5.6377   14.6178 H           1 A02       0.0998
     78 H11        15.0073    3.3178   10.7132 H           1 A02       0.0502
     79 H12        14.1115    1.9739   10.0506 H           1 A02       0.0502
     80 H13        12.5922    3.5433   11.1340 H           1 A02       0.0290
     81 H14        12.2516    3.4606    9.4053 H           1 A02       0.0290
     82 H15        12.1514    5.7540   10.5655 H           1 A02       0.0267
     83 H16        12.9354    5.6528    8.9934 H           1 A02       0.0267
     84 H17        14.1377    7.1727   10.4622 H           1 A02       0.0285
     85 H18        15.1628    5.8102   10.0182 H           1 A02       0.0285
     86 H19        15.3076    6.6732   12.4302 H           1 A02       0.0520
     87 H20        15.2042    4.9399   12.2011 H           1 A02       0.0520
     88 H21        13.0713    6.7722   13.0780 H           1 A02       0.1851
     89 H22        13.8566    1.8075    7.8117 H           1 A02       0.1883
     90 H23        14.2754    2.1665    5.6534 H           1 A02       0.0800
     91 H24        16.8888    1.0928    5.6071 H           1 A02       0.0312
     92 H25        15.3605    0.2610    5.5650 H           1 A02       0.0312
     93 H26        16.7589   -0.8173    7.1325 H           1 A02       0.0269
     94 H27        15.4387   -0.0809    8.0297 H           1 A02       0.0269
     95 H28        16.9146    1.6013    8.9651 H           1 A02       0.0317
     96 H29        18.1785    1.2641    7.7937 H           1 A02       0.0317
     97 H30        18.3367   -1.1125    8.8555 H           1 A02       0.0813
     98 H31        17.3032   -0.4797   10.1507 H           1 A02       0.0813
     99 H32        19.5075   -0.2283   10.8283 H           1 A02       0.1994
    100 H33        18.9998    1.3004   10.3962 H           1 A02       0.1994
    101 H34        19.9840    0.4286    9.3644 H           1 A02       0.1994
    102 H35        17.5943   10.1958    4.8955 H           1 A02       0.0502
    103 H36        16.4638   10.6630    3.6407 H           1 A02       0.0502
    104 H37        15.6238    8.5883    4.0829 H           1 A02       0.0290
    105 H38        14.6652    9.4615    5.2805 H           1 A02       0.0290
    106 H39        16.3516    8.8461    7.0508 H           1 A02       0.0267
    107 H40        17.3123    7.9995    5.8367 H           1 A02       0.0267
    108 H41        14.4709    7.2021    6.6581 H           1 A02       0.0285
    109 H42        15.9587    6.5139    7.3102 H           1 A02       0.0285
    110 H43        16.5475    5.8660    4.8447 H           1 A02       0.0520
    111 H44        14.8707    6.2516    4.4651 H           1 A02       0.0520
    112 H45        14.1611    4.5971    6.0288 H           1 A02       0.1851
    113 H46        14.5871   11.9337    4.3061 H           1 A02       0.1883
    114 H47        14.9371   13.6526    6.6510 H           1 A02       0.0800
    115 H48        12.5639   13.4344    4.7318 H           1 A02       0.0313
    116 H49        12.6492   14.3764    6.2267 H           1 A02       0.0313
    117 H50        13.0108   12.1607    7.4825 H           1 A02       0.0301
    118 H51        12.6211   11.3329    5.9647 H           1 A02       0.0301
    119 H52        10.3434   12.2602    5.9574 H           1 A02       0.0689
    120 H53        10.7596   13.3825    7.2514 H           1 A02       0.0689
    121 H54        10.4468   11.8264    8.7085 H           1 A02       0.2642
    122 H55        10.1197    8.6507    6.6299 H           1 A02       0.2615
    123 H56        10.5364    9.9938    5.8318 H           1 A02       0.2615
    124 H57         9.9942   10.0707    9.6126 H           1 A02       0.2615
    125 H58         9.7838    8.6862    8.7850 H           1 A02       0.2615
    126 H59        15.7086   15.6620    6.2798 H           1 A02       0.1883
    127 H60        15.6089   16.8833    3.6216 H           1 A02       0.0800
    128 H61        17.8721   17.8782    4.1363 H           1 A02       0.0313
    129 H62        17.7815   16.1991    3.6641 H           1 A02       0.0313
    130 H63        19.4137   16.1271    5.2230 H           1 A02       0.0301
    131 H64        18.0545   15.5803    6.1730 H           1 A02       0.0301
    132 H65        18.7040   18.5440    6.2871 H           1 A02       0.0689
    133 H66        19.9096   17.4457    6.9599 H           1 A02       0.0689
    134 H67        17.5497   16.7204    8.0263 H           1 A02       0.2642
    135 H68        18.8763   19.9002    9.6717 H           1 A02       0.2615
    136 H69        19.4645   19.5486    8.2060 H           1 A02       0.2615
    137 H70        16.9092   17.3272    9.9903 H           1 A02       0.2615
    138 H71        17.4907   18.6984   10.6384 H           1 A02       0.2615
    139 H72        14.0341   19.4289    5.3732 H           1 A02       0.1815
    140 H73        13.9385   18.3667    4.0747 H           1 A02       0.1815
@<TRIPOS>BOND
     1     2     1  ar
     2     6     1  ar
     3     3     2  ar
     4     4     3  ar
     5     4     5  ar
     6    10     4   1
     7     5     6  ar
     8     8     5   1
     9     6     7   1
    10     9     8   2
    11    10     9   1
    12    19    10   1
    13    15    11   2
    14    16    12   1
    15    17    13   1
    16    18    14   1
    17    14    19   1
    18    15    18   1
    19    27    15  am
    20    16    17   1
    21    18    16   1
    22    17    19   1
    23    20    21   2
    24    20    22   1
    25    28    20  am
    26    22    23   1
    27    23    24   1
    28    24    25   1
    29    25    26   1
    30    26    27   1
    31    29    28   1
    32    30    29   1
    33    29    32   1
    34    30    31   2
    35    44    30  am
    36    32    33   1
    37    33    34   1
    38    34    35   1
    39    35    36   1
    40    37    38   2
    41    39    37   1
    42    37    45  am
    43    40    39   1
    44    41    40   1
    45    42    41   1
    46    43    42   1
    47    43    44   1
    48    45    46   1
    49    46    47   1
    50    46    54   1
    51    47    48   1
    52    48    49   1
    53    49    50   1
    54    50    51  ar
    55    51    52  ar
    56    51    53  ar
    57    54    55   2
    58    54    56  am
    59    56    57   1
    60    57    58   1
    61    57    65   1
    62    58    59   1
    63    59    60   1
    64    60    61   1
    65    61    62  ar
    66    62    63  ar
    67    62    64  ar
    68    65    66   2
    69    65    67  am
    70     2    68   1
    71     7    69   1
    72     7    70   1
    73     9    71   1
    74    12    72   1
    75    13    73   1
    76    16    74   1
    77    17    75   1
    78    18    76   1
    79    19    77   1
    80    22    78   1
    81    22    79   1
    82    23    80   1
    83    23    81   1
    84    24    82   1
    85    24    83   1
    86    25    84   1
    87    25    85   1
    88    26    86   1
    89    26    87   1
    90    27    88   1
    91    28    89   1
    92    29    90   1
    93    32    91   1
    94    32    92   1
    95    33    93   1
    96    33    94   1
    97    34    95   1
    98    34    96   1
    99    35    97   1
   100    35    98   1
   101    36    99   1
   102    36   100   1
   103    36   101   1
   104    39   102   1
   105    39   103   1
   106    40   104   1
   107    40   105   1
   108    41   106   1
   109    41   107   1
   110    42   108   1
   111    42   109   1
   112    43   110   1
   113    43   111   1
   114    44   112   1
   115    45   113   1
   116    46   114   1
   117    47   115   1
   118    47   116   1
   119    48   117   1
   120    48   118   1
   121    49   119   1
   122    49   120   1
   123    50   121   1
   124    52   122   1
   125    52   123   1
   126    53   124   1
   127    53   125   1
   128    56   126   1
   129    57   127   1
   130    58   128   1
   131    58   129   1
   132    59   130   1
   133    59   131   1
   134    60   132   1
   135    60   133   1
   136    61   134   1
   137    63   135   1
   138    63   136   1
   139    64   137   1
   140    64   138   1
   141    67   139   1
   142    67   140   1
@<TRIPOS>SUBSTRUCTURE
     1  A02      2

