@<TRIPOS>MOLECULE
3ag9_ligand_005
   140   142
SMALL
GAST_HUCK
****
This file was generated by PARSER (from files_GN.cpp)

@<TRIPOS>ATOM
      1 N1         11.3118   14.9222    5.7585 N.ar        1 A02      -0.2698
      2 C2         10.1063   14.2933    5.7649 C.ar        1 A02       0.0533
      3 N3          9.9559   13.1075    6.4213 N.ar        1 A02      -0.2714
      4 C4         11.0165   12.5515    7.0626 C.ar        1 A02       0.1613
      5 C5         12.2557   13.1810    7.0627 C.ar        1 A02       0.1045
      6 C6         12.4006   14.4112    6.4011 C.ar        1 A02       0.1298
      7 N6         13.5589   15.0820    6.3796 N.pl3       1 A02      -0.3152
      8 N7         13.1214   12.4115    7.7361 N.2         1 A02      -0.2958
      9 C8         12.4330   11.3289    8.1384 C.2         1 A02       0.1123
     10 N9         11.1401   11.3867    7.7328 N.pl3       1 A02      -0.1918
     11 OAL        11.3990    6.7884    7.1620 O.2         1 A02      -0.3941
     12 OAN         7.6991    8.1456    6.5523 O.3         1 A02      -0.3840
     13 OAO         7.8266   10.7518    7.1338 O.3         1 A02      -0.3834
     14 OBV        10.6696    9.1301    8.3105 O.3         1 A02      -0.3181
     15 CCC        10.3655    6.8456    7.8215 C.2         1 A02       0.2080
     16 CCK         9.0274    8.6540    6.6889 C.3         1 A02       0.1295
     17 CCL         9.1052   10.1826    6.8411 C.3         1 A02       0.1408
     18 CCM         9.7054    8.1327    7.9720 C.3         1 A02       0.1788
     19 CCN        10.1088   10.4184    8.0033 C.3         1 A02       0.2035
     20 CBZ        15.9668    5.4098    8.0335 C.2         1 A02       0.1782
     21 OAI        15.3658    5.3193    6.9660 O.2         1 A02      -0.3969
     22 CBG        15.2458    5.5926    9.2849 C.3         1 A02       0.0374
     23 CAX        13.6906    5.6929    9.2309 C.3         1 A02      -0.0360
     24 CAU        12.9902    4.4551    8.5932 C.3         1 A02      -0.0492
     25 CAW        11.5788    4.0996    9.1599 C.3         1 A02      -0.0326
     26 CBD        10.3512    4.4199    8.2613 C.3         1 A02       0.0310
     27 NBR         9.8599    5.7589    8.3888 N.am        1 A02      -0.2847
     28 NBS        17.2870    5.3182    8.0771 N.am        1 A02      -0.2656
     29 CCI        18.1987    5.0773    6.9826 C.3         1 A02       0.1308
     30 CCB        19.4008    5.9046    7.1023 C.2         1 A02       0.2016
     31 OAK        20.4775    5.4735    6.6995 O.2         1 A02      -0.3945
     32 CBJ        18.4366    3.5309    6.8488 C.3         1 A02      -0.0122
     33 CAZ        18.9633    2.7559    8.0994 C.3         1 A02      -0.0440
     34 CAS        20.5144    2.6507    8.2464 C.3         1 A02      -0.0124
     35 CAR        21.0760    3.2003    9.5820 C.3         1 A02      -0.0354
     36 NAC        20.8510    4.6420    9.7200 N.4         1 A02       0.2185
     37 CCA        20.3184   13.3135    4.5386 C.2         1 A02       0.1782
     38 OAJ        21.5164   13.5840    4.5311 O.2         1 A02      -0.3969
     39 CBH        19.8729   11.9278    4.4753 C.3         1 A02       0.0374
     40 CAY        20.8441   10.8758    5.0835 C.3         1 A02      -0.0360
     41 CAT        20.1551    9.5392    5.4784 C.3         1 A02      -0.0492
     42 CAV        21.0499    8.5960    6.3498 C.3         1 A02      -0.0326
     43 CBC        20.3971    8.1010    7.6730 C.3         1 A02       0.0310
     44 NBQ        19.3131    7.1779    7.4960 N.am        1 A02      -0.2851
     45 NBT        19.4212   14.2923    4.4456 N.am        1 A02      -0.2656
     46 CCJ        19.6758   15.7124    4.3376 C.3         1 A02       0.1310
     47 CBK        18.5435   16.5215    5.0653 C.3         1 A02      -0.0092
     48 CBB        18.9720   17.3558    6.3024 C.3         1 A02      -0.0156
     49 CBF        19.0572   16.6085    7.6690 C.3         1 A02       0.0627
     50 NBP        18.1565   17.0454    8.6351 N.pl3       1 A02      -0.2723
     51 CBX        18.1041   18.1583    9.2751 C.cat       1 A02       0.2882
     52 NAB        18.9117   19.1445    9.1496 N.pl3       1 A02      -0.2849
     53 NAE        17.1496   18.2951   10.1157 N.pl3       1 A02      -0.2849
     54 CCD        19.7942   16.1563    2.9435 C.2         1 A02       0.2039
     55 OAM        19.3203   15.4670    2.0481 O.2         1 A02      -0.3944
     56 N          20.3073   17.3542    2.6854 N.am        1 A02      -0.2637
     57 CA         20.4089   17.9752    1.3878 C.3         1 A02       0.1307
     58 CB         21.7510   18.7590    1.2566 C.3         1 A02      -0.0092
     59 CG         22.4726   18.5829   -0.1255 C.3         1 A02      -0.0156
     60 CD         22.6260   19.8768   -0.9766 C.3         1 A02       0.0627
     61 NE         21.5581   20.7784   -0.8964 N.pl3       1 A02      -0.2723
     62 CZ         20.4024   20.6906   -1.4413 C.cat       1 A02       0.2882
     63 NH1        20.0102   19.7142   -2.1743 N.pl3       1 A02      -0.2849
     64 NH2        19.5764   21.6521   -1.2580 N.pl3       1 A02      -0.2849
     65 C          19.2566   18.8340    1.1311 C.2         1 A02       0.1992
     66 O          18.5968   18.6953    0.1109 O.2         1 A02      -0.3947
     67 NAF        18.8755   19.7698    1.9743 N.am        1 A02      -0.2990
     68 H1          9.3111   14.7090    5.2766 H           1 A02       0.0996
     69 H2         14.3323   14.7580    6.8678 H           1 A02       0.1820
     70 H3         13.6214   15.9165    5.8913 H           1 A02       0.1820
     71 H4         12.8526   10.5719    8.6783 H           1 A02       0.1349
     72 H5          7.3687    8.5179    5.7084 H           1 A02       0.2102
     73 H6          7.9566   11.7234    7.1135 H           1 A02       0.2101
     74 H7          9.5959    8.3631    5.7973 H           1 A02       0.0673
     75 H8          9.4673   10.6137    5.9043 H           1 A02       0.0678
     76 H9          8.9647    8.0907    8.7791 H           1 A02       0.0869
     77 H10         9.5636   10.7603    8.8896 H           1 A02       0.0998
     78 H11        15.6330    6.4981    9.7587 H           1 A02       0.0502
     79 H12        15.4968    4.7598    9.9525 H           1 A02       0.0502
     80 H13        13.4073    6.6002    8.6960 H           1 A02       0.0290
     81 H14        13.3376    5.8010   10.2625 H           1 A02       0.0290
     82 H15        13.6382    3.5903    8.7649 H           1 A02       0.0267
     83 H16        12.9297    4.5934    7.5115 H           1 A02       0.0267
     84 H17        11.4389    4.5520   10.1440 H           1 A02       0.0285
     85 H18        11.5690    3.0171    9.3189 H           1 A02       0.0285
     86 H19         9.5230    3.7775    8.5791 H           1 A02       0.0520
     87 H20        10.5525    4.1698    7.2169 H           1 A02       0.0520
     88 H21         9.0302    5.8641    8.8802 H           1 A02       0.1851
     89 H22        17.6904    5.3599    8.9607 H           1 A02       0.1883
     90 H23        17.7381    5.4034    6.0433 H           1 A02       0.0800
     91 H24        19.0870    3.3272    5.9958 H           1 A02       0.0312
     92 H25        17.4640    3.0959    6.5918 H           1 A02       0.0312
     93 H26        18.5770    1.7344    8.0356 H           1 A02       0.0269
     94 H27        18.5197    3.1827    8.9999 H           1 A02       0.0269
     95 H28        21.0265    3.1586    7.4311 H           1 A02       0.0317
     96 H29        20.8061    1.5985    8.1789 H           1 A02       0.0317
     97 H30        22.1524    3.0252    9.6223 H           1 A02       0.0813
     98 H31        20.6116    2.6836   10.4257 H           1 A02       0.0813
     99 H32        21.3204    4.9797   10.5618 H           1 A02       0.1994
    100 H33        19.8521    4.8329    9.7936 H           1 A02       0.1994
    101 H34        21.2331    5.1287    8.9065 H           1 A02       0.1994
    102 H35        19.7079   11.6892    3.4216 H           1 A02       0.0502
    103 H36        18.9122   11.8366    4.9865 H           1 A02       0.0502
    104 H37        21.3105   11.3080    5.9693 H           1 A02       0.0290
    105 H38        21.6298   10.6478    4.3626 H           1 A02       0.0290
    106 H39        19.8865    9.0128    4.5582 H           1 A02       0.0267
    107 H40        19.2187    9.7608    6.0017 H           1 A02       0.0267
    108 H41        21.9816    9.1048    6.6137 H           1 A02       0.0285
    109 H42        21.3429    7.7310    5.7529 H           1 A02       0.0285
    110 H43        20.0200    8.9586    8.2294 H           1 A02       0.0520
    111 H44        21.1607    7.6318    8.3027 H           1 A02       0.0520
    112 H45        18.4321    7.4814    7.7653 H           1 A02       0.1851
    113 H46        18.4882   14.0187    4.4168 H           1 A02       0.1883
    114 H47        20.6222   15.9234    4.8447 H           1 A02       0.0800
    115 H48        17.7420   15.8367    5.3592 H           1 A02       0.0313
    116 H49        18.0874   17.2405    4.3699 H           1 A02       0.0313
    117 H50        18.2624   18.1815    6.3998 H           1 A02       0.0301
    118 H51        19.9514   17.7949    6.0896 H           1 A02       0.0301
    119 H52        20.0733   16.6822    8.0599 H           1 A02       0.0689
    120 H53        18.8477   15.5459    7.5082 H           1 A02       0.0689
    121 H54        17.4838   16.4391    8.8569 H           1 A02       0.2642
    122 H55        18.7688   19.9117    9.6606 H           1 A02       0.2615
    123 H56        19.6277   19.0996    8.5560 H           1 A02       0.2615
    124 H57        16.5470   17.5950   10.2450 H           1 A02       0.2615
    125 H58        17.0703   19.0941   10.5900 H           1 A02       0.2615
    126 H59        20.6560   17.8514    3.4460 H           1 A02       0.1883
    127 H60        20.4449   17.1651    0.6497 H           1 A02       0.0800
    128 H61        22.4256   18.4009    2.0437 H           1 A02       0.0313
    129 H62        21.5792   19.8191    1.4692 H           1 A02       0.0313
    130 H63        21.9664   17.8290   -0.7319 H           1 A02       0.0301
    131 H64        23.4790   18.1951    0.0560 H           1 A02       0.0301
    132 H65        22.7907   19.6044   -2.0229 H           1 A02       0.0689
    133 H66        23.5234   20.4031   -0.6448 H           1 A02       0.0689
    134 H67        21.7341   21.5715   -0.4292 H           1 A02       0.2642
    135 H68        19.1524   19.7241   -2.5415 H           1 A02       0.2615
    136 H69        20.5781   18.9907   -2.3372 H           1 A02       0.2615
    137 H70        19.8254   22.3889   -0.7422 H           1 A02       0.2615
    138 H71        18.7307   21.6224   -1.6538 H           1 A02       0.2615
    139 H72        18.1035   20.3173    1.7668 H           1 A02       0.1815
    140 H73        19.3658   19.9192    2.7978 H           1 A02       0.1815
@<TRIPOS>BOND
     1     2     1  ar
     2     6     1  ar
     3     3     2  ar
     4     4     3  ar
     5     4     5  ar
     6    10     4   1
     7     5     6  ar
     8     8     5   1
     9     6     7   1
    10     9     8   2
    11    10     9   1
    12    19    10   1
    13    15    11   2
    14    16    12   1
    15    17    13   1
    16    18    14   1
    17    14    19   1
    18    15    18   1
    19    27    15  am
    20    16    17   1
    21    18    16   1
    22    17    19   1
    23    20    21   2
    24    20    22   1
    25    28    20  am
    26    22    23   1
    27    23    24   1
    28    24    25   1
    29    25    26   1
    30    26    27   1
    31    29    28   1
    32    30    29   1
    33    29    32   1
    34    30    31   2
    35    44    30  am
    36    32    33   1
    37    33    34   1
    38    34    35   1
    39    35    36   1
    40    37    38   2
    41    39    37   1
    42    37    45  am
    43    40    39   1
    44    41    40   1
    45    42    41   1
    46    43    42   1
    47    43    44   1
    48    45    46   1
    49    46    47   1
    50    46    54   1
    51    47    48   1
    52    48    49   1
    53    49    50   1
    54    50    51  ar
    55    51    52  ar
    56    51    53  ar
    57    54    55   2
    58    54    56  am
    59    56    57   1
    60    57    58   1
    61    57    65   1
    62    58    59   1
    63    59    60   1
    64    60    61   1
    65    61    62  ar
    66    62    63  ar
    67    62    64  ar
    68    65    66   2
    69    65    67  am
    70     2    68   1
    71     7    69   1
    72     7    70   1
    73     9    71   1
    74    12    72   1
    75    13    73   1
    76    16    74   1
    77    17    75   1
    78    18    76   1
    79    19    77   1
    80    22    78   1
    81    22    79   1
    82    23    80   1
    83    23    81   1
    84    24    82   1
    85    24    83   1
    86    25    84   1
    87    25    85   1
    88    26    86   1
    89    26    87   1
    90    27    88   1
    91    28    89   1
    92    29    90   1
    93    32    91   1
    94    32    92   1
    95    33    93   1
    96    33    94   1
    97    34    95   1
    98    34    96   1
    99    35    97   1
   100    35    98   1
   101    36    99   1
   102    36   100   1
   103    36   101   1
   104    39   102   1
   105    39   103   1
   106    40   104   1
   107    40   105   1
   108    41   106   1
   109    41   107   1
   110    42   108   1
   111    42   109   1
   112    43   110   1
   113    43   111   1
   114    44   112   1
   115    45   113   1
   116    46   114   1
   117    47   115   1
   118    47   116   1
   119    48   117   1
   120    48   118   1
   121    49   119   1
   122    49   120   1
   123    50   121   1
   124    52   122   1
   125    52   123   1
   126    53   124   1
   127    53   125   1
   128    56   126   1
   129    57   127   1
   130    58   128   1
   131    58   129   1
   132    59   130   1
   133    59   131   1
   134    60   132   1
   135    60   133   1
   136    61   134   1
   137    63   135   1
   138    63   136   1
   139    64   137   1
   140    64   138   1
   141    67   139   1
   142    67   140   1
@<TRIPOS>SUBSTRUCTURE
     1  A02      2

