@<TRIPOS>MOLECULE
3ag9_ligand_048
   140   142
SMALL
GAST_HUCK
****
This file was generated by PARSER (from files_GN.cpp)

@<TRIPOS>ATOM
      1 N1         10.3401    3.0205   14.3387 N.ar        1 A02      -0.2698
      2 C2          9.7047    3.5563   13.2607 C.ar        1 A02       0.0533
      3 N3          8.5106    4.1930   13.4123 N.ar        1 A02      -0.2714
      4 C4          7.9501    4.3020   14.6464 C.ar        1 A02       0.1613
      5 C5          8.5853    3.7542   15.7568 C.ar        1 A02       0.1045
      6 C6          9.8158    3.0956   15.5926 C.ar        1 A02       0.1298
      7 N6         10.4673    2.5493   16.6313 N.pl3       1 A02      -0.3152
      8 N7          7.8230    3.9802   16.8345 N.2         1 A02      -0.2958
      9 C8          6.7450    4.6515   16.3978 C.2         1 A02       0.1123
     10 N9          6.8057    4.8841   15.0653 N.pl3       1 A02      -0.1918
     11 OAL         6.3226    9.0277   11.2822 O.2         1 A02      -0.3941
     12 OAN         4.2282    8.8496   14.2053 O.3         1 A02      -0.3840
     13 OAO         3.4894    6.2271   14.5614 O.3         1 A02      -0.3834
     14 OBV         6.4993    6.2328   13.1515 O.3         1 A02      -0.3181
     15 CCC         6.7105    8.4280   12.2778 C.2         1 A02       0.2080
     16 CCK         5.2874    7.8952   14.2782 C.3         1 A02       0.1295
     17 CCL         4.8503    6.5474   14.8735 C.3         1 A02       0.1408
     18 CCM         5.8181    7.4644   12.8994 C.3         1 A02       0.1788
     19 CCN         5.8263    5.5232   14.2138 C.3         1 A02       0.2035
     20 CBZ        13.5230    8.6489    9.6168 C.2         1 A02       0.1782
     21 OAI        12.5050    8.3618    8.9965 O.2         1 A02      -0.3969
     22 CBG        13.3661    9.2588   10.9257 C.3         1 A02       0.0374
     23 CAX        12.7032    8.3114   11.9854 C.3         1 A02      -0.0360
     24 CAU        11.3948    8.8443   12.6396 C.3         1 A02      -0.0492
     25 CAW        10.1587    8.8645   11.6979 C.3         1 A02      -0.0326
     26 CBD         8.9044    9.5608   12.3106 C.3         1 A02       0.0310
     27 NBR         7.9291    8.6218   12.7738 N.am        1 A02      -0.2847
     28 NBS        14.7312    8.3442    9.1459 N.am        1 A02      -0.2656
     29 CCI        15.0198    7.5223    8.0004 C.3         1 A02       0.1308
     30 CCB        16.1393    8.0725    7.2319 C.2         1 A02       0.2016
     31 OAK        17.1202    8.4975    7.8366 O.2         1 A02      -0.3945
     32 CBJ        15.3213    6.0642    8.5000 C.3         1 A02      -0.0122
     33 CAZ        14.8311    4.9318    7.5572 C.3         1 A02      -0.0440
     34 CAS        13.3121    4.6206    7.6963 C.3         1 A02      -0.0124
     35 CAR        12.8467    3.4301    6.8252 C.3         1 A02      -0.0354
     36 NAC        11.4544    3.0770    7.1265 N.4         1 A02       0.2185
     37 CCA        17.0367   13.5705    6.2177 C.2         1 A02       0.1782
     38 OAJ        17.9478   13.5416    7.0322 O.2         1 A02      -0.3969
     39 CBH        15.9406   12.6305    6.3660 C.3         1 A02       0.0374
     40 CAY        15.8977   11.5304    5.2695 C.3         1 A02      -0.0360
     41 CAT        17.2659   10.8466    4.9890 C.3         1 A02      -0.0492
     42 CAV        17.1635    9.5216    4.1758 C.3         1 A02      -0.0326
     43 CBC        17.2503    8.2338    5.0317 C.3         1 A02       0.0310
     44 NBQ        16.1285    8.0346    5.9014 N.am        1 A02      -0.2851
     45 NBT        17.0433   14.4318    5.2025 N.am        1 A02      -0.2656
     46 CCJ        18.0930   15.3645    4.8930 C.3         1 A02       0.1310
     47 CBK        17.7620   16.7852    5.4706 C.3         1 A02      -0.0092
     48 CBB        18.9241   17.4539    6.2675 C.3         1 A02      -0.0156
     49 CBF        19.1026   16.9232    7.7208 C.3         1 A02       0.0627
     50 NBP        18.0200   17.1787    8.5744 N.pl3       1 A02      -0.2723
     51 CBX        17.6417   18.3142    9.0352 C.cat       1 A02       0.2882
     52 NAB        18.1980   19.4345    8.7830 N.pl3       1 A02      -0.2849
     53 NAE        16.6278   18.3358    9.8105 N.pl3       1 A02      -0.2849
     54 CCD        18.2907   15.3223    3.4464 C.2         1 A02       0.2039
     55 OAM        17.4150   15.7655    2.7149 O.2         1 A02      -0.3944
     56 N          19.3645   14.7231    2.9313 N.am        1 A02      -0.2637
     57 CA         19.6564   14.5418    1.5353 C.3         1 A02       0.1307
     58 CB         20.6772   13.3773    1.3552 C.3         1 A02      -0.0092
     59 CG         22.1056   13.6223    1.9178 C.3         1 A02      -0.0156
     60 CD         22.9814   12.3426    1.8603 C.3         1 A02       0.0627
     61 NE         24.2442   12.5206    2.4278 N.pl3       1 A02      -0.2723
     62 CZ         25.2780   13.0844    1.9174 C.cat       1 A02       0.2882
     63 NH1        25.3390   13.5898    0.7439 N.pl3       1 A02      -0.2849
     64 NH2        26.3202   13.1314    2.6512 N.pl3       1 A02      -0.2849
     65 C          20.0840   15.7611    0.8612 C.2         1 A02       0.1992
     66 O          20.1070   15.8025   -0.3595 O.2         1 A02      -0.3947
     67 NAF        20.4637   16.8450    1.5023 N.am        1 A02      -0.2990
     68 H1         10.1210    3.4780   12.3333 H           1 A02       0.0996
     69 H2         10.0867    2.5981   17.5236 H           1 A02       0.1820
     70 H3         11.3135    2.0950   16.4901 H           1 A02       0.1820
     71 H4          5.9857    4.9258   17.0162 H           1 A02       0.1349
     72 H5          4.6307    9.6501   13.8173 H           1 A02       0.2102
     73 H6          3.4195    6.2656   13.5857 H           1 A02       0.2101
     74 H7          6.0944    8.3127   14.8901 H           1 A02       0.0673
     75 H8          4.9264    6.5992   15.9591 H           1 A02       0.0678
     76 H9          4.9673    7.2541   12.2377 H           1 A02       0.0869
     77 H10         5.2490    4.7252   13.7364 H           1 A02       0.0998
     78 H11        12.7850   10.1786   10.8004 H           1 A02       0.0502
     79 H12        14.3444    9.5750   11.3080 H           1 A02       0.0502
     80 H13        13.4247    8.1514   12.7903 H           1 A02       0.0290
     81 H14        12.4935    7.3287   11.5611 H           1 A02       0.0290
     82 H15        11.5799    9.8566   13.0187 H           1 A02       0.0267
     83 H16        11.1567    8.2128   13.5007 H           1 A02       0.0267
     84 H17         9.9190    7.8398   11.4086 H           1 A02       0.0285
     85 H18        10.4319    9.3917   10.7819 H           1 A02       0.0285
     86 H19         8.4799   10.2390   11.5632 H           1 A02       0.0520
     87 H20         9.1777   10.1786   13.1679 H           1 A02       0.0520
     88 H21         8.1873    8.0726   13.5312 H           1 A02       0.1851
     89 H22        15.4868    8.5733    9.7143 H           1 A02       0.1883
     90 H23        14.1425    7.4886    7.3493 H           1 A02       0.0800
     91 H24        14.8586    5.9030    9.4780 H           1 A02       0.0312
     92 H25        16.3977    5.9468    8.6631 H           1 A02       0.0312
     93 H26        15.3878    4.0213    7.8020 H           1 A02       0.0269
     94 H27        15.0662    5.1848    6.5176 H           1 A02       0.0269
     95 H28        12.7317    5.5049    7.4187 H           1 A02       0.0317
     96 H29        13.0972    4.3907    8.7428 H           1 A02       0.0317
     97 H30        13.4705    2.5560    7.0202 H           1 A02       0.0813
     98 H31        12.9231    3.6896    5.7676 H           1 A02       0.0813
     99 H32        11.1840    2.2574    6.5849 H           1 A02       0.1994
    100 H33        10.8393    3.8582    6.8886 H           1 A02       0.1994
    101 H34        11.3607    2.8654    8.1221 H           1 A02       0.1994
    102 H35        14.9952   13.1858    6.3537 H           1 A02       0.0502
    103 H36        16.0037   12.1318    7.3395 H           1 A02       0.0502
    104 H37        15.5330   11.9713    4.3361 H           1 A02       0.0290
    105 H38        15.1723   10.7755    5.5783 H           1 A02       0.0290
    106 H39        17.7862   10.6623    5.9336 H           1 A02       0.0267
    107 H40        17.8833   11.5508    4.4227 H           1 A02       0.0267
    108 H41        17.9996    9.4927    3.4673 H           1 A02       0.0285
    109 H42        16.2467    9.5052    3.5810 H           1 A02       0.0285
    110 H43        18.1988    8.2320    5.5776 H           1 A02       0.0520
    111 H44        17.2766    7.3798    4.3577 H           1 A02       0.0520
    112 H45        15.3091    7.7316    5.4771 H           1 A02       0.1851
    113 H46        16.2726   14.4265    4.6138 H           1 A02       0.1883
    114 H47        19.0237   15.0155    5.3516 H           1 A02       0.0800
    115 H48        16.8895   16.7289    6.1305 H           1 A02       0.0313
    116 H49        17.4727   17.4657    4.6653 H           1 A02       0.0313
    117 H50        18.7500   18.5259    6.3025 H           1 A02       0.0301
    118 H51        19.8580   17.3002    5.7183 H           1 A02       0.0301
    119 H52        20.0211   17.3430    8.1480 H           1 A02       0.0689
    120 H53        19.2370   15.8377    7.6971 H           1 A02       0.0689
    121 H54        17.5088   16.4425    8.8383 H           1 A02       0.2642
    122 H55        17.8508   20.2142    9.1696 H           1 A02       0.2615
    123 H56        18.9560   19.4843    8.2373 H           1 A02       0.2615
    124 H57        16.1988   17.5378   10.0462 H           1 A02       0.2615
    125 H58        16.3323   19.1575   10.1582 H           1 A02       0.2615
    126 H59        19.9899   14.3376    3.5695 H           1 A02       0.1883
    127 H60        18.7306   14.2035    1.0561 H           1 A02       0.0800
    128 H61        20.7599   13.1421    0.2873 H           1 A02       0.0313
    129 H62        20.2575   12.4847    1.8419 H           1 A02       0.0313
    130 H63        22.0358   13.9499    2.9553 H           1 A02       0.0301
    131 H64        22.5848   14.4122    1.3411 H           1 A02       0.0301
    132 H65        23.0738   11.9840    0.8281 H           1 A02       0.0689
    133 H66        22.4829   11.5556    2.4327 H           1 A02       0.0689
    134 H67        24.3611   12.1782    3.2906 H           1 A02       0.2642
    135 H68        26.1295   13.9887    0.4471 H           1 A02       0.2615
    136 H69        24.5908   13.5717    0.1812 H           1 A02       0.2615
    137 H70        26.2897   12.7715    3.5130 H           1 A02       0.2615
    138 H71        27.1075   13.5309    2.3384 H           1 A02       0.2615
    139 H72        20.7438   17.6320    1.0046 H           1 A02       0.1815
    140 H73        20.4860   16.8649    2.4731 H           1 A02       0.1815
@<TRIPOS>BOND
     1     2     1  ar
     2     6     1  ar
     3     3     2  ar
     4     4     3  ar
     5     4     5  ar
     6    10     4   1
     7     5     6  ar
     8     8     5   1
     9     6     7   1
    10     9     8   2
    11    10     9   1
    12    19    10   1
    13    15    11   2
    14    16    12   1
    15    17    13   1
    16    18    14   1
    17    14    19   1
    18    15    18   1
    19    27    15  am
    20    16    17   1
    21    18    16   1
    22    17    19   1
    23    20    21   2
    24    20    22   1
    25    28    20  am
    26    22    23   1
    27    23    24   1
    28    24    25   1
    29    25    26   1
    30    26    27   1
    31    29    28   1
    32    30    29   1
    33    29    32   1
    34    30    31   2
    35    44    30  am
    36    32    33   1
    37    33    34   1
    38    34    35   1
    39    35    36   1
    40    37    38   2
    41    39    37   1
    42    37    45  am
    43    40    39   1
    44    41    40   1
    45    42    41   1
    46    43    42   1
    47    43    44   1
    48    45    46   1
    49    46    47   1
    50    46    54   1
    51    47    48   1
    52    48    49   1
    53    49    50   1
    54    50    51  ar
    55    51    52  ar
    56    51    53  ar
    57    54    55   2
    58    54    56  am
    59    56    57   1
    60    57    58   1
    61    57    65   1
    62    58    59   1
    63    59    60   1
    64    60    61   1
    65    61    62  ar
    66    62    63  ar
    67    62    64  ar
    68    65    66   2
    69    65    67  am
    70     2    68   1
    71     7    69   1
    72     7    70   1
    73     9    71   1
    74    12    72   1
    75    13    73   1
    76    16    74   1
    77    17    75   1
    78    18    76   1
    79    19    77   1
    80    22    78   1
    81    22    79   1
    82    23    80   1
    83    23    81   1
    84    24    82   1
    85    24    83   1
    86    25    84   1
    87    25    85   1
    88    26    86   1
    89    26    87   1
    90    27    88   1
    91    28    89   1
    92    29    90   1
    93    32    91   1
    94    32    92   1
    95    33    93   1
    96    33    94   1
    97    34    95   1
    98    34    96   1
    99    35    97   1
   100    35    98   1
   101    36    99   1
   102    36   100   1
   103    36   101   1
   104    39   102   1
   105    39   103   1
   106    40   104   1
   107    40   105   1
   108    41   106   1
   109    41   107   1
   110    42   108   1
   111    42   109   1
   112    43   110   1
   113    43   111   1
   114    44   112   1
   115    45   113   1
   116    46   114   1
   117    47   115   1
   118    47   116   1
   119    48   117   1
   120    48   118   1
   121    49   119   1
   122    49   120   1
   123    50   121   1
   124    52   122   1
   125    52   123   1
   126    53   124   1
   127    53   125   1
   128    56   126   1
   129    57   127   1
   130    58   128   1
   131    58   129   1
   132    59   130   1
   133    59   131   1
   134    60   132   1
   135    60   133   1
   136    61   134   1
   137    63   135   1
   138    63   136   1
   139    64   137   1
   140    64   138   1
   141    67   139   1
   142    67   140   1
@<TRIPOS>SUBSTRUCTURE
     1  A02      2

