@<TRIPOS>MOLECULE
3ag9_ligand_089
   140   142
SMALL
GAST_HUCK
****
This file was generated by PARSER (from files_GN.cpp)

@<TRIPOS>ATOM
      1 N1         11.9070    2.7724   16.0917 N.ar        1 A02      -0.2698
      2 C2         11.8787    3.1135   14.7725 C.ar        1 A02       0.0533
      3 N3         10.7332    3.5872   14.2175 N.ar        1 A02      -0.2714
      4 C4          9.6165    3.7228   14.9763 C.ar        1 A02       0.1613
      5 C5          9.6240    3.3894   16.3306 C.ar        1 A02       0.1045
      6 C6         10.8113    2.8919   16.8915 C.ar        1 A02       0.1298
      7 N6         10.8973    2.5405   18.1809 N.pl3       1 A02      -0.3152
      8 N7          8.4103    3.6428   16.8430 N.2         1 A02      -0.2958
      9 C8          7.6682    4.1215   15.8288 C.2         1 A02       0.1123
     10 N9          8.3828    4.1708   14.6801 N.pl3       1 A02      -0.1918
     11 OAL        10.9141    6.4692   12.1513 O.2         1 A02      -0.3941
     12 OAN         6.8295    6.4681   11.2040 O.3         1 A02      -0.3840
     13 OAO         6.7124    6.7829   13.9609 O.3         1 A02      -0.3834
     14 OBV         8.6951    4.2328   12.2990 O.3         1 A02      -0.3181
     15 CCC        10.4332    5.5677   11.4677 C.2         1 A02       0.2080
     16 CCK         8.0811    6.5132   11.8940 C.3         1 A02       0.1295
     17 CCL         7.8966    6.2206   13.3889 C.3         1 A02       0.1408
     18 CCM         8.9954    5.3437   11.4338 C.3         1 A02       0.1788
     19 CCN         7.9103    4.6764   13.4230 C.3         1 A02       0.2035
     20 CBZ        17.6501    3.1014    7.9404 C.2         1 A02       0.1782
     21 OAI        17.7412    2.6645    6.7987 O.2         1 A02      -0.3969
     22 CBG        16.8599    2.3505    8.9025 C.3         1 A02       0.0374
     23 CAX        15.3184    2.5624    8.8083 C.3         1 A02      -0.0360
     24 CAU        14.7742    3.6588    9.7680 C.3         1 A02      -0.0492
     25 CAW        13.2229    3.7148    9.7883 C.3         1 A02      -0.0326
     26 CBD        12.6569    4.7939   10.7528 C.3         1 A02       0.0310
     27 NBR        11.2322    4.7431   10.7867 N.am        1 A02      -0.2847
     28 NBS        18.3726    4.1402    8.3392 N.am        1 A02      -0.2656
     29 CCI        19.4870    4.7411    7.6471 C.3         1 A02       0.1308
     30 CCB        19.0465    5.9298    6.9071 C.2         1 A02       0.2016
     31 OAK        18.0041    5.8521    6.2641 O.2         1 A02      -0.3945
     32 CBJ        20.6100    4.9926    8.7076 C.3         1 A02      -0.0122
     33 CAZ        21.0208    3.8046    9.6356 C.3         1 A02      -0.0440
     34 CAS        22.1374    2.8530    9.1213 C.3         1 A02      -0.0124
     35 CAR        21.7996    2.0438    7.8505 C.3         1 A02      -0.0354
     36 NAC        22.7815    0.9700    7.6492 N.4         1 A02       0.2185
     37 CCA        20.2261   12.9261    3.1733 C.2         1 A02       0.1782
     38 OAJ        20.1186   11.9310    2.4644 O.2         1 A02      -0.3969
     39 CBH        20.9594   12.8872    4.4323 C.3         1 A02       0.0374
     40 CAY        21.3846   11.4876    4.9668 C.3         1 A02      -0.0360
     41 CAT        20.1898   10.5624    5.3385 C.3         1 A02      -0.0492
     42 CAV        20.6187    9.2143    5.9861 C.3         1 A02      -0.0326
     43 CBC        19.4395    8.2112    6.0829 C.3         1 A02       0.0310
     44 NBQ        19.8009    7.0204    6.7982 N.am        1 A02      -0.2851
     45 NBT        19.7058   14.0862    2.7858 N.am        1 A02      -0.2656
     46 CCJ        18.7687   14.2972    1.7147 C.3         1 A02       0.1310
     47 CBK        19.4568   14.9787    0.4823 C.3         1 A02      -0.0092
     48 CBB        20.8206   14.3954   -0.0031 C.3         1 A02      -0.0156
     49 CBF        22.0848   14.8790    0.7634 C.3         1 A02       0.0627
     50 NBP        22.1001   16.2752    0.8716 N.pl3       1 A02      -0.2723
     51 CBX        21.9320   16.9931    1.9219 C.cat       1 A02       0.2882
     52 NAB        21.7684   16.5437    3.1075 N.pl3       1 A02      -0.2849
     53 NAE        21.9104   18.2637    1.7835 N.pl3       1 A02      -0.2849
     54 CCD        17.6262   15.0431    2.2579 C.2         1 A02       0.2039
     55 OAM        17.1548   15.9994    1.6512 O.2         1 A02      -0.3944
     56 N          17.1095   14.6801    3.4264 N.am        1 A02      -0.2637
     57 CA         16.0687   15.3281    4.1712 C.3         1 A02       0.1307
     58 CB         16.6600   16.3917    5.1590 C.3         1 A02      -0.0092
     59 CG         17.9697   16.0387    5.9249 C.3         1 A02      -0.0156
     60 CD         18.5039   17.1978    6.8166 C.3         1 A02       0.0627
     61 NE         17.8088   17.3202    8.0248 N.pl3       1 A02      -0.2723
     62 CZ         17.9827   18.2100    8.9316 C.cat       1 A02       0.2882
     63 NH1        18.8150   19.1836    8.8669 N.pl3       1 A02      -0.2849
     64 NH2        17.2837   18.1388    9.9981 N.pl3       1 A02      -0.2849
     65 C          15.2302   14.2741    4.7210 C.2         1 A02       0.1992
     66 O          14.5298   13.6098    3.9615 O.2         1 A02      -0.3947
     67 NAF        15.1689   13.9590    5.9942 N.am        1 A02      -0.2990
     68 H1         12.7196    3.0158   14.2039 H           1 A02       0.0996
     69 H2         10.1272    2.6052   18.7674 H           1 A02       0.1820
     70 H3         11.7366    2.2001   18.5274 H           1 A02       0.1820
     71 H4          6.6918    4.4092   15.9284 H           1 A02       0.1349
     72 H5          6.3299    7.2483   11.5250 H           1 A02       0.2102
     73 H6          5.9625    6.3658   13.4850 H           1 A02       0.2101
     74 H7          8.5353    7.4948   11.7259 H           1 A02       0.0673
     75 H8          8.7570    6.6165   13.9399 H           1 A02       0.0678
     76 H9          8.7137    5.0720   10.4093 H           1 A02       0.0869
     77 H10         6.8964    4.2991   13.2480 H           1 A02       0.0998
     78 H11        17.1926    2.5767    9.9193 H           1 A02       0.0502
     79 H12        17.0687    1.2864    8.7512 H           1 A02       0.0502
     80 H13        14.8323    1.6188    9.0733 H           1 A02       0.0290
     81 H14        15.0247    2.7985    7.7827 H           1 A02       0.0290
     82 H15        15.1701    4.6329    9.4670 H           1 A02       0.0267
     83 H16        15.1219    3.4507   10.7850 H           1 A02       0.0267
     84 H17        12.8369    2.7384   10.1028 H           1 A02       0.0285
     85 H18        12.8545    3.9176    8.7797 H           1 A02       0.0285
     86 H19        12.9853    5.7829   10.4137 H           1 A02       0.0520
     87 H20        13.0465    4.6215   11.7630 H           1 A02       0.0520
     88 H21        10.7946    4.0546   10.2560 H           1 A02       0.1851
     89 H22        18.2204    4.4443    9.2468 H           1 A02       0.1883
     90 H23        19.8815    4.0432    6.9064 H           1 A02       0.0800
     91 H24        20.2623    5.8050    9.3530 H           1 A02       0.0312
     92 H25        21.5065    5.3534    8.2003 H           1 A02       0.0312
     93 H26        20.1441    3.2103    9.9040 H           1 A02       0.0269
     94 H27        21.3965    4.2439   10.5636 H           1 A02       0.0269
     95 H28        22.3499    2.1396    9.9242 H           1 A02       0.0317
     96 H29        23.0527    3.4211    8.9436 H           1 A02       0.0317
     97 H30        21.8222    2.6908    6.9736 H           1 A02       0.0813
     98 H31        20.8081    1.5945    7.9423 H           1 A02       0.0813
     99 H32        22.5497    0.4537    6.7988 H           1 A02       0.1994
    100 H33        22.7572    0.3302    8.4470 H           1 A02       0.1994
    101 H34        23.7255    1.3666    7.5616 H           1 A02       0.1994
    102 H35        20.3458   13.3702    5.1988 H           1 A02       0.0502
    103 H36        21.8627   13.4948    4.3119 H           1 A02       0.0502
    104 H37        21.9996   11.6411    5.8572 H           1 A02       0.0290
    105 H38        22.0100   10.9969    4.2159 H           1 A02       0.0290
    106 H39        19.6127   10.3485    4.4364 H           1 A02       0.0267
    107 H40        19.5369   11.0924    6.0356 H           1 A02       0.0267
    108 H41        21.0150    9.4118    6.9852 H           1 A02       0.0285
    109 H42        21.4143    8.7626    5.3876 H           1 A02       0.0285
    110 H43        19.1267    7.9491    5.0684 H           1 A02       0.0520
    111 H44        18.6001    8.6840    6.5984 H           1 A02       0.0520
    112 H45        20.6645    7.0236    7.2375 H           1 A02       0.1851
    113 H46        19.8818   14.8536    3.3555 H           1 A02       0.1883
    114 H47        18.3679   13.3367    1.3671 H           1 A02       0.0800
    115 H48        19.5922   16.0494    0.6859 H           1 A02       0.0313
    116 H49        18.7586   14.8887   -0.3592 H           1 A02       0.0313
    117 H50        20.9488   14.6787   -1.0538 H           1 A02       0.0301
    118 H51        20.7848   13.3011    0.0299 H           1 A02       0.0301
    119 H52        22.9739   14.5841    0.1989 H           1 A02       0.0689
    120 H53        22.1501   14.3715    1.7290 H           1 A02       0.0689
    121 H54        22.2022   16.7477    0.0696 H           1 A02       0.2642
    122 H55        21.6198   17.1359    3.8089 H           1 A02       0.2615
    123 H56        21.7811   15.6284    3.2812 H           1 A02       0.2615
    124 H57        22.0266   18.6477    0.9383 H           1 A02       0.2615
    125 H58        21.7464   18.8100    2.5256 H           1 A02       0.2615
    126 H59        17.5368   13.9257    3.8631 H           1 A02       0.1883
    127 H60        15.4223   15.8878    3.4850 H           1 A02       0.0800
    128 H61        15.8891   16.6674    5.8823 H           1 A02       0.0313
    129 H62        16.8753   17.2884    4.5709 H           1 A02       0.0313
    130 H63        18.7452   15.8039    5.1912 H           1 A02       0.0301
    131 H64        17.8193   15.1480    6.5373 H           1 A02       0.0301
    132 H65        18.4555   18.1418    6.2611 H           1 A02       0.0689
    133 H66        19.5558   17.0032    7.0470 H           1 A02       0.0689
    134 H67        17.1562   16.6762    8.2014 H           1 A02       0.2642
    135 H68        18.8687   19.7812    9.5831 H           1 A02       0.2615
    136 H69        19.3655   19.2903    8.1222 H           1 A02       0.2615
    137 H70        16.6778   17.4376   10.1174 H           1 A02       0.2615
    138 H71        17.3955   18.7869   10.6637 H           1 A02       0.2615
    139 H72        14.5876   13.2415    6.2900 H           1 A02       0.1815
    140 H73        15.7032   14.4396    6.6389 H           1 A02       0.1815
@<TRIPOS>BOND
     1     2     1  ar
     2     6     1  ar
     3     3     2  ar
     4     4     3  ar
     5     4     5  ar
     6    10     4   1
     7     5     6  ar
     8     8     5   1
     9     6     7   1
    10     9     8   2
    11    10     9   1
    12    19    10   1
    13    15    11   2
    14    16    12   1
    15    17    13   1
    16    18    14   1
    17    14    19   1
    18    15    18   1
    19    27    15  am
    20    16    17   1
    21    18    16   1
    22    17    19   1
    23    20    21   2
    24    20    22   1
    25    28    20  am
    26    22    23   1
    27    23    24   1
    28    24    25   1
    29    25    26   1
    30    26    27   1
    31    29    28   1
    32    30    29   1
    33    29    32   1
    34    30    31   2
    35    44    30  am
    36    32    33   1
    37    33    34   1
    38    34    35   1
    39    35    36   1
    40    37    38   2
    41    39    37   1
    42    37    45  am
    43    40    39   1
    44    41    40   1
    45    42    41   1
    46    43    42   1
    47    43    44   1
    48    45    46   1
    49    46    47   1
    50    46    54   1
    51    47    48   1
    52    48    49   1
    53    49    50   1
    54    50    51  ar
    55    51    52  ar
    56    51    53  ar
    57    54    55   2
    58    54    56  am
    59    56    57   1
    60    57    58   1
    61    57    65   1
    62    58    59   1
    63    59    60   1
    64    60    61   1
    65    61    62  ar
    66    62    63  ar
    67    62    64  ar
    68    65    66   2
    69    65    67  am
    70     2    68   1
    71     7    69   1
    72     7    70   1
    73     9    71   1
    74    12    72   1
    75    13    73   1
    76    16    74   1
    77    17    75   1
    78    18    76   1
    79    19    77   1
    80    22    78   1
    81    22    79   1
    82    23    80   1
    83    23    81   1
    84    24    82   1
    85    24    83   1
    86    25    84   1
    87    25    85   1
    88    26    86   1
    89    26    87   1
    90    27    88   1
    91    28    89   1
    92    29    90   1
    93    32    91   1
    94    32    92   1
    95    33    93   1
    96    33    94   1
    97    34    95   1
    98    34    96   1
    99    35    97   1
   100    35    98   1
   101    36    99   1
   102    36   100   1
   103    36   101   1
   104    39   102   1
   105    39   103   1
   106    40   104   1
   107    40   105   1
   108    41   106   1
   109    41   107   1
   110    42   108   1
   111    42   109   1
   112    43   110   1
   113    43   111   1
   114    44   112   1
   115    45   113   1
   116    46   114   1
   117    47   115   1
   118    47   116   1
   119    48   117   1
   120    48   118   1
   121    49   119   1
   122    49   120   1
   123    50   121   1
   124    52   122   1
   125    52   123   1
   126    53   124   1
   127    53   125   1
   128    56   126   1
   129    57   127   1
   130    58   128   1
   131    58   129   1
   132    59   130   1
   133    59   131   1
   134    60   132   1
   135    60   133   1
   136    61   134   1
   137    63   135   1
   138    63   136   1
   139    64   137   1
   140    64   138   1
   141    67   139   1
   142    67   140   1
@<TRIPOS>SUBSTRUCTURE
     1  A02      2

