@<TRIPOS>MOLECULE
3ag9_ligand_060
   140   142
SMALL
GAST_HUCK
****
This file was generated by PARSER (from files_GN.cpp)

@<TRIPOS>ATOM
      1 N1          8.8122    7.7041    2.7350 N.ar        1 A02      -0.2698
      2 C2          9.8893    8.5255    2.8776 C.ar        1 A02       0.0533
      3 N3         11.1441    8.0496    2.6517 N.ar        1 A02      -0.2714
      4 C4         11.3363    6.7573    2.2814 C.ar        1 A02       0.1613
      5 C5         10.2407    5.9125    2.1178 C.ar        1 A02       0.1045
      6 C6          8.9475    6.4035    2.3617 C.ar        1 A02       0.1298
      7 N6          7.8637    5.6187    2.2496 N.pl3       1 A02      -0.3152
      8 N7         10.6841    4.7124    1.7238 N.2         1 A02      -0.2958
      9 C8         12.0216    4.8091    1.6560 C.2         1 A02       0.1123
     10 N9         12.4474    6.0450    2.0058 N.pl3       1 A02      -0.1918
     11 OAL        17.1529    4.3658    4.2013 O.2         1 A02      -0.3941
     12 OAN        16.4349    8.0915    2.4476 O.3         1 A02      -0.3840
     13 OAO        13.8749    8.7855    3.0279 O.3         1 A02      -0.3834
     14 OBV        14.7470    5.4018    2.0303 O.3         1 A02      -0.3181
     15 CCC        16.0333    4.7984    3.9442 C.2         1 A02       0.2080
     16 CCK        15.7170    7.1969    3.3021 C.3         1 A02       0.1295
     17 CCL        14.1978    7.4054    3.2045 C.3         1 A02       0.1408
     18 CCM        15.8913    5.7296    2.8342 C.3         1 A02       0.1788
     19 CCN        13.8146    6.5035    2.0072 C.3         1 A02       0.2035
     20 CBZ        12.5050    3.8924    9.7756 C.2         1 A02       0.1782
     21 OAI        12.4355    5.1130    9.8723 O.2         1 A02      -0.3969
     22 CBG        11.6090    3.2296    8.8445 C.3         1 A02       0.0374
     23 CAX        11.3968    3.9906    7.5027 C.3         1 A02      -0.0360
     24 CAU        12.6770    4.4380    6.7377 C.3         1 A02      -0.0492
     25 CAW        13.7345    3.3176    6.5326 C.3         1 A02      -0.0326
     26 CBD        15.0989    3.8096    5.9831 C.3         1 A02       0.0310
     27 NBR        15.0106    4.5256    4.7454 N.am        1 A02      -0.2847
     28 NBS        13.4066    3.1905   10.4561 N.am        1 A02      -0.2656
     29 CCI        14.4633    3.6932   11.2965 C.3         1 A02       0.1308
     30 CCB        15.2116    4.7242   10.5834 C.2         1 A02       0.2016
     31 OAK        15.9448    4.3408    9.6759 O.2         1 A02      -0.3945
     32 CBJ        13.9618    4.0230   12.7436 C.3         1 A02      -0.0122
     33 CAZ        13.5733    2.7487   13.5571 C.3         1 A02      -0.0440
     34 CAS        12.4067    2.9515   14.5636 C.3         1 A02      -0.0124
     35 CAR        11.0449    2.4518   14.0191 C.3         1 A02      -0.0354
     36 NAC         9.9307    2.9560   14.8315 N.4         1 A02       0.2185
     37 CCA        14.4841   12.0368    6.5175 C.2         1 A02       0.1782
     38 OAJ        13.7845   11.3670    5.7496 O.2         1 A02      -0.3969
     39 CBH        15.4047   11.3202    7.3722 C.3         1 A02       0.0374
     40 CAY        14.6778   10.2819    8.2869 C.3         1 A02      -0.0360
     41 CAT        15.6604    9.4068    9.1161 C.3         1 A02      -0.0492
     42 CAV        14.9354    8.2906    9.9206 C.3         1 A02      -0.0326
     43 CBC        15.8535    7.0851   10.2467 C.3         1 A02       0.0310
     44 NBQ        15.1094    6.0200   10.8518 N.am        1 A02      -0.2851
     45 NBT        14.4086   13.3689    6.5817 N.am        1 A02      -0.2656
     46 CCJ        13.6305   14.2680    5.7861 C.3         1 A02       0.1310
     47 CBK        12.2109   13.7677    5.3343 C.3         1 A02      -0.0092
     48 CBB        11.1448   13.6138    6.4631 C.3         1 A02      -0.0156
     49 CBF        11.2757   12.4068    7.4354 C.3         1 A02       0.0627
     50 NBP        11.2563   11.1822    6.7611 N.pl3       1 A02      -0.2723
     51 CBX        11.0966   10.0162    7.2884 C.cat       1 A02       0.2882
     52 NAB        10.9362    9.7995    8.5461 N.pl3       1 A02      -0.2849
     53 NAE        11.0803    8.9989    6.5153 N.pl3       1 A02      -0.2849
     54 CCD        14.4887   14.7789    4.7158 C.2         1 A02       0.2039
     55 OAM        14.2221   14.6045    3.5305 O.2         1 A02      -0.3944
     56 N          15.5696   15.4705    5.0602 N.am        1 A02      -0.2637
     57 CA         16.4957   16.1716    4.2056 C.3         1 A02       0.1307
     58 CB         17.8892   16.2100    4.9132 C.3         1 A02      -0.0092
     59 CG         18.0152   17.2648    6.0590 C.3         1 A02      -0.0156
     60 CD         18.8265   16.7874    7.2988 C.3         1 A02       0.0627
     61 NE         18.1203   17.0723    8.4710 N.pl3       1 A02      -0.2723
     62 CZ         18.1600   18.1221    9.2004 C.cat       1 A02       0.2882
     63 NH1        18.9282   19.1314    9.0365 N.pl3       1 A02      -0.2849
     64 NH2        17.3364   18.1716   10.1728 N.pl3       1 A02      -0.2849
     65 C          16.0471   17.5037    3.8228 C.2         1 A02       0.1992
     66 O          16.4808   18.0252    2.8062 O.2         1 A02      -0.3947
     67 NAF        15.2268   18.2245    4.5656 N.am        1 A02      -0.2990
     68 H1          9.7572    9.4992    3.1560 H           1 A02       0.0996
     69 H2          7.9676    4.6822    2.0205 H           1 A02       0.1820
     70 H3          6.9831    5.9775    2.4374 H           1 A02       0.1820
     71 H4         12.6160    4.0325    1.3662 H           1 A02       0.1349
     72 H5         16.0973    7.9198    1.5421 H           1 A02       0.2102
     73 H6         12.9295    8.8645    3.2614 H           1 A02       0.2101
     74 H7         16.0677    7.3632    4.3271 H           1 A02       0.0673
     75 H8         13.7177    7.0470    4.1206 H           1 A02       0.0678
     76 H9         16.7727    5.6538    2.1864 H           1 A02       0.0869
     77 H10        13.9890    7.0566    1.0790 H           1 A02       0.0998
     78 H11        10.6387    3.1237    9.3329 H           1 A02       0.0502
     79 H12        11.9601    2.2163    8.6176 H           1 A02       0.0502
     80 H13        10.7998    4.8840    7.7109 H           1 A02       0.0290
     81 H14        10.7992    3.3577    6.8381 H           1 A02       0.0290
     82 H15        13.1404    5.2820    7.2582 H           1 A02       0.0267
     83 H16        12.3539    4.7958    5.7570 H           1 A02       0.0267
     84 H17        13.3303    2.5664    5.8528 H           1 A02       0.0285
     85 H18        13.9285    2.8170    7.4858 H           1 A02       0.0285
     86 H19        15.7499    2.9426    5.8448 H           1 A02       0.0520
     87 H20        15.5643    4.4594    6.7265 H           1 A02       0.0520
     88 H21        14.1406    4.8699    4.4907 H           1 A02       0.1851
     89 H22        13.3845    2.2282   10.3291 H           1 A02       0.1883
     90 H23        15.1677    2.8701   11.4106 H           1 A02       0.0800
     91 H24        13.1173    4.7148   12.6867 H           1 A02       0.0312
     92 H25        14.7506    4.5365   13.3022 H           1 A02       0.0312
     93 H26        14.4556    2.4266   14.1160 H           1 A02       0.0269
     94 H27        13.3155    1.9247   12.8839 H           1 A02       0.0269
     95 H28        12.3247    4.0055   14.8377 H           1 A02       0.0317
     96 H29        12.6267    2.3877   15.4740 H           1 A02       0.0317
     97 H30        11.0220    1.3593   14.0481 H           1 A02       0.0813
     98 H31        10.8920    2.7758   12.9852 H           1 A02       0.0813
     99 H32         9.0535    2.5467   14.4977 H           1 A02       0.1994
    100 H33         9.8834    3.9740   14.7516 H           1 A02       0.1994
    101 H34        10.0755    2.6953   15.8092 H           1 A02       0.1994
    102 H35        15.9639   12.0230    8.0252 H           1 A02       0.0502
    103 H36        16.1312   10.8111    6.7227 H           1 A02       0.0502
    104 H37        14.0481    9.6123    7.6785 H           1 A02       0.0290
    105 H38        14.0145   10.8299    8.9699 H           1 A02       0.0290
    106 H39        16.2197   10.0459    9.8101 H           1 A02       0.0267
    107 H40        16.3738    8.9381    8.4275 H           1 A02       0.0267
    108 H41        14.0813    7.9330    9.3394 H           1 A02       0.0285
    109 H42        14.5622    8.7235   10.8563 H           1 A02       0.0285
    110 H43        16.6252    7.4005   10.9574 H           1 A02       0.0520
    111 H44        16.3617    6.7670    9.3292 H           1 A02       0.0520
    112 H45        14.4899    6.2798   11.5502 H           1 A02       0.1851
    113 H46        15.0622   13.8074    7.1671 H           1 A02       0.1883
    114 H47        13.4461   15.1408    6.4274 H           1 A02       0.0800
    115 H48        12.2963   12.8320    4.7809 H           1 A02       0.0313
    116 H49        11.8121   14.5152    4.6386 H           1 A02       0.0313
    117 H50        10.1669   13.5255    5.9662 H           1 A02       0.0301
    118 H51        11.1174   14.5349    7.0632 H           1 A02       0.0301
    119 H52        10.4232   12.4688    8.1228 H           1 A02       0.0689
    120 H53        12.1904   12.5019    8.0244 H           1 A02       0.0689
    121 H54        11.3210   11.1979    5.8308 H           1 A02       0.2642
    122 H55        10.8235    8.9268    8.8525 H           1 A02       0.2615
    123 H56        10.9380   10.5051    9.1487 H           1 A02       0.2615
    124 H57        11.1803    9.1105    5.5944 H           1 A02       0.2615
    125 H58        10.9553    8.1441    6.8677 H           1 A02       0.2615
    126 H59        15.7500   15.5186    6.0156 H           1 A02       0.1883
    127 H60        16.6213   15.5735    3.2957 H           1 A02       0.0800
    128 H61        18.6770   16.3990    4.1780 H           1 A02       0.0313
    129 H62        18.0696   15.2095    5.3145 H           1 A02       0.0313
    130 H63        17.0149   17.5760    6.3862 H           1 A02       0.0301
    131 H64        18.4962   18.1685    5.6578 H           1 A02       0.0301
    132 H65        19.8266   17.2259    7.2818 H           1 A02       0.0689
    133 H66        18.9470   15.7052    7.2833 H           1 A02       0.0689
    134 H67        17.4664   16.4448    8.6994 H           1 A02       0.2642
    135 H68        18.8551   19.8493    9.6323 H           1 A02       0.2615
    136 H69        19.5484   19.1572    8.3384 H           1 A02       0.2615
    137 H70        16.7474   17.4593   10.3198 H           1 A02       0.2615
    138 H71        17.3206   18.9260   10.7274 H           1 A02       0.2615
    139 H72        14.9657   19.1140    4.2841 H           1 A02       0.1815
    140 H73        14.8646   17.8570    5.3863 H           1 A02       0.1815
@<TRIPOS>BOND
     1     2     1  ar
     2     6     1  ar
     3     3     2  ar
     4     4     3  ar
     5     4     5  ar
     6    10     4   1
     7     5     6  ar
     8     8     5   1
     9     6     7   1
    10     9     8   2
    11    10     9   1
    12    19    10   1
    13    15    11   2
    14    16    12   1
    15    17    13   1
    16    18    14   1
    17    14    19   1
    18    15    18   1
    19    27    15  am
    20    16    17   1
    21    18    16   1
    22    17    19   1
    23    20    21   2
    24    20    22   1
    25    28    20  am
    26    22    23   1
    27    23    24   1
    28    24    25   1
    29    25    26   1
    30    26    27   1
    31    29    28   1
    32    30    29   1
    33    29    32   1
    34    30    31   2
    35    44    30  am
    36    32    33   1
    37    33    34   1
    38    34    35   1
    39    35    36   1
    40    37    38   2
    41    39    37   1
    42    37    45  am
    43    40    39   1
    44    41    40   1
    45    42    41   1
    46    43    42   1
    47    43    44   1
    48    45    46   1
    49    46    47   1
    50    46    54   1
    51    47    48   1
    52    48    49   1
    53    49    50   1
    54    50    51  ar
    55    51    52  ar
    56    51    53  ar
    57    54    55   2
    58    54    56  am
    59    56    57   1
    60    57    58   1
    61    57    65   1
    62    58    59   1
    63    59    60   1
    64    60    61   1
    65    61    62  ar
    66    62    63  ar
    67    62    64  ar
    68    65    66   2
    69    65    67  am
    70     2    68   1
    71     7    69   1
    72     7    70   1
    73     9    71   1
    74    12    72   1
    75    13    73   1
    76    16    74   1
    77    17    75   1
    78    18    76   1
    79    19    77   1
    80    22    78   1
    81    22    79   1
    82    23    80   1
    83    23    81   1
    84    24    82   1
    85    24    83   1
    86    25    84   1
    87    25    85   1
    88    26    86   1
    89    26    87   1
    90    27    88   1
    91    28    89   1
    92    29    90   1
    93    32    91   1
    94    32    92   1
    95    33    93   1
    96    33    94   1
    97    34    95   1
    98    34    96   1
    99    35    97   1
   100    35    98   1
   101    36    99   1
   102    36   100   1
   103    36   101   1
   104    39   102   1
   105    39   103   1
   106    40   104   1
   107    40   105   1
   108    41   106   1
   109    41   107   1
   110    42   108   1
   111    42   109   1
   112    43   110   1
   113    43   111   1
   114    44   112   1
   115    45   113   1
   116    46   114   1
   117    47   115   1
   118    47   116   1
   119    48   117   1
   120    48   118   1
   121    49   119   1
   122    49   120   1
   123    50   121   1
   124    52   122   1
   125    52   123   1
   126    53   124   1
   127    53   125   1
   128    56   126   1
   129    57   127   1
   130    58   128   1
   131    58   129   1
   132    59   130   1
   133    59   131   1
   134    60   132   1
   135    60   133   1
   136    61   134   1
   137    63   135   1
   138    63   136   1
   139    64   137   1
   140    64   138   1
   141    67   139   1
   142    67   140   1
@<TRIPOS>SUBSTRUCTURE
     1  A02      2

