@<TRIPOS>MOLECULE
3ag9_ligand_092
   140   142
SMALL
GAST_HUCK
****
This file was generated by PARSER (from files_GN.cpp)

@<TRIPOS>ATOM
      1 N1          4.0918   13.6006   11.5381 N.ar        1 A02      -0.2698
      2 C2          5.0499   13.2597   10.6314 C.ar        1 A02       0.0533
      3 N3          5.6632   12.0467   10.7085 N.ar        1 A02      -0.2714
      4 C4          5.3225   11.1713   11.6913 C.ar        1 A02       0.1613
      5 C5          4.3413   11.5039   12.6213 C.ar        1 A02       0.1045
      6 C6          3.7117   12.7572   12.5351 C.ar        1 A02       0.1298
      7 N6          2.7595   13.1273   13.4090 N.pl3       1 A02      -0.3152
      8 N7          4.1823   10.4747   13.4602 N.2         1 A02      -0.2958
      9 C8          5.0548    9.5301   13.0633 C.2         1 A02       0.1123
     10 N9          5.7689    9.9346   11.9863 N.pl3       1 A02      -0.1918
     11 OAL         7.5740    7.7636   14.6116 O.2         1 A02      -0.3941
     12 OAN        10.2960    9.3937   12.3274 O.3         1 A02      -0.3840
     13 OAO         8.8120    9.5966    9.9752 O.3         1 A02      -0.3834
     14 OBV         7.0173    7.9012   11.8663 O.3         1 A02      -0.3181
     15 CCC         8.3272    7.2855   13.7719 C.2         1 A02       0.2080
     16 CCK         8.8729    9.3228   12.4139 C.3         1 A02       0.1295
     17 CCL         8.1435    9.9060   11.2001 C.3         1 A02       0.1408
     18 CCM         8.3365    7.8733   12.4389 C.3         1 A02       0.1788
     19 CCN         6.7732    9.1899   11.2663 C.3         1 A02       0.2035
     20 CBZ        13.3952    2.8704   13.1834 C.2         1 A02       0.1782
     21 OAI        14.6082    2.7003   13.1283 O.2         1 A02      -0.3969
     22 CBG        12.6787    2.4624   14.3814 C.3         1 A02       0.0374
     23 CAX        11.7123    3.5250   14.9884 C.3         1 A02      -0.0360
     24 CAU        10.2340    3.4207   14.5029 C.3         1 A02      -0.0492
     25 CAW         9.2208    4.2049   15.3827 C.3         1 A02      -0.0326
     26 CBD         9.4059    5.7390   15.3768 C.3         1 A02       0.0310
     27 NBR         9.1739    6.3083   14.0794 N.am        1 A02      -0.2847
     28 NBS        12.7366    3.3969   12.1591 N.am        1 A02      -0.2656
     29 CCI        13.2806    3.8298   10.9034 C.3         1 A02       0.1308
     30 CCB        12.3861    3.3453    9.8610 C.2         1 A02       0.2016
     31 OAK        11.3264    3.9269    9.6594 O.2         1 A02      -0.3945
     32 CBJ        13.4734    5.3760   10.9482 C.3         1 A02      -0.0122
     33 CAZ        14.0809    5.9951    9.6563 C.3         1 A02      -0.0440
     34 CAS        14.6545    7.4274    9.8508 C.3         1 A02      -0.0124
     35 CAR        13.6239    8.4764   10.3302 C.3         1 A02      -0.0354
     36 NAC        14.2419    9.8032   10.4272 N.4         1 A02       0.2185
     37 CCA        17.3709    1.8456    6.1408 C.2         1 A02       0.1782
     38 OAJ        17.3025    1.5387    4.9574 O.2         1 A02      -0.3969
     39 CBH        16.3761    1.2966    7.0427 C.3         1 A02       0.0374
     40 CAY        14.9798    1.9884    6.9138 C.3         1 A02      -0.0360
     41 CAT        13.8121    1.0070    6.6037 C.3         1 A02      -0.0492
     42 CAV        12.3918    1.6013    6.8389 C.3         1 A02      -0.0326
     43 CBC        11.8623    1.4995    8.2923 C.3         1 A02       0.0310
     44 NBQ        12.6698    2.2053    9.2402 N.am        1 A02      -0.2851
     45 NBT        18.2972    2.6701    6.6117 N.am        1 A02      -0.2656
     46 CCJ        19.3623    3.3172    5.8942 C.3         1 A02       0.1310
     47 CBK        20.7410    3.1603    6.6459 C.3         1 A02      -0.0092
     48 CBB        20.7968    2.4142    8.0243 C.3         1 A02      -0.0156
     49 CBF        22.0586    1.5158    8.1888 C.3         1 A02       0.0627
     50 NBP        22.3256    1.0734    9.4891 N.pl3       1 A02      -0.2723
     51 CBX        21.5969    0.3614   10.2722 C.cat       1 A02       0.2882
     52 NAB        20.4271   -0.0933   10.0146 N.pl3       1 A02      -0.2849
     53 NAE        22.0780    0.0839   11.4221 N.pl3       1 A02      -0.2849
     54 CCD        19.0163    4.7001    5.5617 C.2         1 A02       0.2039
     55 OAM        19.8756    5.3929    5.0269 O.2         1 A02      -0.3944
     56 N          17.7843    5.1744    5.7292 N.am        1 A02      -0.2637
     57 CA         17.2605    6.4652    5.3799 C.3         1 A02       0.1307
     58 CB         16.6648    7.1496    6.6544 C.3         1 A02      -0.0092
     59 CG         17.6524    8.0833    7.4025 C.3         1 A02      -0.0156
     60 CD         18.8889    7.3795    8.0372 C.3         1 A02       0.0627
     61 NE         19.9312    8.2827    8.2976 N.pl3       1 A02      -0.2723
     62 CZ         20.7198    8.8307    7.4423 C.cat       1 A02       0.2882
     63 NH1        20.6798    8.6184    6.1816 N.pl3       1 A02      -0.2849
     64 NH2        21.6080    9.6396    7.8764 N.pl3       1 A02      -0.2849
     65 C          16.2659    6.2564    4.3355 C.2         1 A02       0.1992
     66 O          16.4023    6.7765    3.2344 O.2         1 A02      -0.3947
     67 NAF        15.1931    5.5239    4.5312 N.am        1 A02      -0.2990
     68 H1          5.3097   13.9170    9.8950 H           1 A02       0.0996
     69 H2          2.4940   12.5255   14.1224 H           1 A02       0.1820
     70 H3          2.3361   13.9968   13.3273 H           1 A02       0.1820
     71 H4          5.1381    8.6230   13.5228 H           1 A02       0.1349
     72 H5         10.5400    8.8968   11.5177 H           1 A02       0.2102
     73 H6          9.6044   10.1734    9.9685 H           1 A02       0.2101
     74 H7          8.5610    9.8713   13.3102 H           1 A02       0.0673
     75 H8          8.0579   10.9902   11.2854 H           1 A02       0.0678
     76 H9          8.9545    7.2643   11.7691 H           1 A02       0.0869
     77 H10         6.3926    9.0215   10.2560 H           1 A02       0.0998
     78 H11        13.4080    2.1954   15.1552 H           1 A02       0.0502
     79 H12        12.1321    1.5424   14.1524 H           1 A02       0.0502
     80 H13        12.0954    4.5379   14.8028 H           1 A02       0.0290
     81 H14        11.7151    3.3831   16.0721 H           1 A02       0.0290
     82 H15         9.9320    2.3706   14.5331 H           1 A02       0.0267
     83 H16        10.1463    3.7541   13.4655 H           1 A02       0.0267
     84 H17         9.3066    3.8452   16.4143 H           1 A02       0.0285
     85 H18         8.2079    3.9744   15.0445 H           1 A02       0.0285
     86 H19        10.4358    5.9667   15.6562 H           1 A02       0.0520
     87 H20         8.7456    6.1696   16.1398 H           1 A02       0.0520
     88 H21         9.7537    5.9917   13.3673 H           1 A02       0.1851
     89 H22        11.7895    3.5506   12.2843 H           1 A02       0.1883
     90 H23        14.2748    3.3923   10.7502 H           1 A02       0.0800
     91 H24        14.1391    5.6026   11.7867 H           1 A02       0.0312
     92 H25        12.5110    5.8578   11.1558 H           1 A02       0.0312
     93 H26        13.3196    6.0125    8.8706 H           1 A02       0.0269
     94 H27        14.8988    5.3576    9.3088 H           1 A02       0.0269
     95 H28        15.0690    7.7610    8.8976 H           1 A02       0.0317
     96 H29        15.4782    7.3836   10.5701 H           1 A02       0.0317
     97 H30        13.2398    8.2085   11.3177 H           1 A02       0.0813
     98 H31        12.7862    8.5305    9.6299 H           1 A02       0.0813
     99 H32        13.5546   10.4700   10.7882 H           1 A02       0.1994
    100 H33        14.5533   10.1082    9.5010 H           1 A02       0.1994
    101 H34        15.0477    9.7632   11.0595 H           1 A02       0.1994
    102 H35        16.7174    1.4029    8.0788 H           1 A02       0.0502
    103 H36        16.3093    0.2198    6.8618 H           1 A02       0.0502
    104 H37        14.9825    2.7574    6.1334 H           1 A02       0.0290
    105 H38        14.7778    2.5116    7.8480 H           1 A02       0.0290
    106 H39        13.9165    0.0970    7.2037 H           1 A02       0.0267
    107 H40        13.8985    0.7132    5.5537 H           1 A02       0.0267
    108 H41        11.6847    1.0487    6.2134 H           1 A02       0.0285
    109 H42        12.3624    2.6436    6.5112 H           1 A02       0.0285
    110 H43        11.8555    0.4487    8.5950 H           1 A02       0.0520
    111 H44        10.8222    1.8448    8.3116 H           1 A02       0.0520
    112 H45        13.5123    1.7801    9.4735 H           1 A02       0.1851
    113 H46        18.2109    2.9159    7.5494 H           1 A02       0.1883
    114 H47        19.4783    2.8134    4.9245 H           1 A02       0.0800
    115 H48        21.1877    4.1442    6.8109 H           1 A02       0.0313
    116 H49        21.4199    2.6510    5.9549 H           1 A02       0.0313
    117 H50        19.9263    1.7717    8.1452 H           1 A02       0.0301
    118 H51        20.7721    3.1533    8.8306 H           1 A02       0.0301
    119 H52        22.9360    2.0899    7.8750 H           1 A02       0.0689
    120 H53        21.9753    0.6495    7.5227 H           1 A02       0.0689
    121 H54        23.1499    1.3382    9.8493 H           1 A02       0.2642
    122 H55        19.9740   -0.5609   10.6872 H           1 A02       0.2615
    123 H56        20.0243    0.0583    9.1843 H           1 A02       0.2615
    124 H57        22.9337    0.3839   11.6588 H           1 A02       0.2615
    125 H58        21.5546   -0.3928   12.0315 H           1 A02       0.2615
    126 H59        17.1419    4.5570    6.1088 H           1 A02       0.1883
    127 H60        18.0535    7.1068    4.9752 H           1 A02       0.0800
    128 H61        16.2780    6.3936    7.3453 H           1 A02       0.0313
    129 H62        15.8111    7.7720    6.3645 H           1 A02       0.0313
    130 H63        17.0966    8.5766    8.2028 H           1 A02       0.0301
    131 H64        17.9697    8.8606    6.7008 H           1 A02       0.0301
    132 H65        19.2581    6.5698    7.4065 H           1 A02       0.0689
    133 H66        18.5729    6.9408    8.9908 H           1 A02       0.0689
    134 H67        20.0819    8.4955    9.1961 H           1 A02       0.2642
    135 H68        21.2790    9.0620    5.6131 H           1 A02       0.2615
    136 H69        20.0414    8.0357    5.8203 H           1 A02       0.2615
    137 H70        21.6633    9.8295    8.7914 H           1 A02       0.2615
    138 H71        22.1928   10.0613    7.2793 H           1 A02       0.2615
    139 H72        14.5463    5.4078    3.8191 H           1 A02       0.1815
    140 H73        15.0529    5.0858    5.3857 H           1 A02       0.1815
@<TRIPOS>BOND
     1     2     1  ar
     2     6     1  ar
     3     3     2  ar
     4     4     3  ar
     5     4     5  ar
     6    10     4   1
     7     5     6  ar
     8     8     5   1
     9     6     7   1
    10     9     8   2
    11    10     9   1
    12    19    10   1
    13    15    11   2
    14    16    12   1
    15    17    13   1
    16    18    14   1
    17    14    19   1
    18    15    18   1
    19    27    15  am
    20    16    17   1
    21    18    16   1
    22    17    19   1
    23    20    21   2
    24    20    22   1
    25    28    20  am
    26    22    23   1
    27    23    24   1
    28    24    25   1
    29    25    26   1
    30    26    27   1
    31    29    28   1
    32    30    29   1
    33    29    32   1
    34    30    31   2
    35    44    30  am
    36    32    33   1
    37    33    34   1
    38    34    35   1
    39    35    36   1
    40    37    38   2
    41    39    37   1
    42    37    45  am
    43    40    39   1
    44    41    40   1
    45    42    41   1
    46    43    42   1
    47    43    44   1
    48    45    46   1
    49    46    47   1
    50    46    54   1
    51    47    48   1
    52    48    49   1
    53    49    50   1
    54    50    51  ar
    55    51    52  ar
    56    51    53  ar
    57    54    55   2
    58    54    56  am
    59    56    57   1
    60    57    58   1
    61    57    65   1
    62    58    59   1
    63    59    60   1
    64    60    61   1
    65    61    62  ar
    66    62    63  ar
    67    62    64  ar
    68    65    66   2
    69    65    67  am
    70     2    68   1
    71     7    69   1
    72     7    70   1
    73     9    71   1
    74    12    72   1
    75    13    73   1
    76    16    74   1
    77    17    75   1
    78    18    76   1
    79    19    77   1
    80    22    78   1
    81    22    79   1
    82    23    80   1
    83    23    81   1
    84    24    82   1
    85    24    83   1
    86    25    84   1
    87    25    85   1
    88    26    86   1
    89    26    87   1
    90    27    88   1
    91    28    89   1
    92    29    90   1
    93    32    91   1
    94    32    92   1
    95    33    93   1
    96    33    94   1
    97    34    95   1
    98    34    96   1
    99    35    97   1
   100    35    98   1
   101    36    99   1
   102    36   100   1
   103    36   101   1
   104    39   102   1
   105    39   103   1
   106    40   104   1
   107    40   105   1
   108    41   106   1
   109    41   107   1
   110    42   108   1
   111    42   109   1
   112    43   110   1
   113    43   111   1
   114    44   112   1
   115    45   113   1
   116    46   114   1
   117    47   115   1
   118    47   116   1
   119    48   117   1
   120    48   118   1
   121    49   119   1
   122    49   120   1
   123    50   121   1
   124    52   122   1
   125    52   123   1
   126    53   124   1
   127    53   125   1
   128    56   126   1
   129    57   127   1
   130    58   128   1
   131    58   129   1
   132    59   130   1
   133    59   131   1
   134    60   132   1
   135    60   133   1
   136    61   134   1
   137    63   135   1
   138    63   136   1
   139    64   137   1
   140    64   138   1
   141    67   139   1
   142    67   140   1
@<TRIPOS>SUBSTRUCTURE
     1  A02      2

