@<TRIPOS>MOLECULE
3ag9_ligand_064
   140   142
SMALL
GAST_HUCK
****
This file was generated by PARSER (from files_GN.cpp)

@<TRIPOS>ATOM
      1 N1          2.9196    7.3956    8.0723 N.ar        1 A02      -0.2698
      2 C2          3.6816    8.4749    8.4147 C.ar        1 A02       0.0533
      3 N3          4.4566    8.4362    9.5284 N.ar        1 A02      -0.2714
      4 C4          4.4568    7.3287   10.3200 C.ar        1 A02       0.1613
      5 C5          3.6712    6.2285    9.9924 C.ar        1 A02       0.1045
      6 C6          2.8936    6.2631    8.8244 C.ar        1 A02       0.1298
      7 N6          2.1824    5.2013    8.4124 N.pl3       1 A02      -0.3152
      8 N7          3.8689    5.2788   10.9144 N.2         1 A02      -0.2958
      9 C8          4.7648    5.7765   11.7860 C.2         1 A02       0.1123
     10 N9          5.1397    7.0304   11.4373 N.pl3       1 A02      -0.1918
     11 OAL         8.7017    5.7791   14.1885 O.2         1 A02      -0.3941
     12 OAN         7.6418    9.8021   14.2241 O.3         1 A02      -0.3840
     13 OAO         4.9912    9.2033   13.7708 O.3         1 A02      -0.3834
     14 OBV         7.3930    7.1151   12.0637 O.3         1 A02      -0.3181
     15 CCC         9.1612    6.6943   13.5254 C.2         1 A02       0.2080
     16 CCK         7.3444    8.4076   14.0975 C.3         1 A02       0.1295
     17 CCL         5.9191    8.1373   13.5670 C.3         1 A02       0.1408
     18 CCM         8.2556    7.7252   13.0328 C.3         1 A02       0.1788
     19 CCN         6.1539    7.8279   12.0745 C.3         1 A02       0.2035
     20 CBZ        15.8892    2.9040    9.8826 C.2         1 A02       0.1782
     21 OAI        15.1995    2.0280    9.3841 O.2         1 A02      -0.3969
     22 CBG        15.3657    3.7147   10.9786 C.3         1 A02       0.0374
     23 CAX        13.9043    3.3978   11.4306 C.3         1 A02      -0.0360
     24 CAU        13.3748    4.2704   12.6195 C.3         1 A02      -0.0492
     25 CAW        12.0898    5.0835   12.2803 C.3         1 A02      -0.0326
     26 CBD        11.4695    5.7827   13.5178 C.3         1 A02       0.0310
     27 NBR        10.4400    6.7091   13.1530 N.am        1 A02      -0.2847
     28 NBS        17.0977    3.1730    9.3957 N.am        1 A02      -0.2656
     29 CCI        17.7093    2.5999    8.2214 C.3         1 A02       0.1308
     30 CCB        17.3325    3.4321    7.0819 C.2         1 A02       0.2016
     31 OAK        18.0477    4.3697    6.7547 O.2         1 A02      -0.3945
     32 CBJ        19.2562    2.4384    8.4205 C.3         1 A02      -0.0122
     33 CAZ        19.7066    1.1858    9.2329 C.3         1 A02      -0.0440
     34 CAS        21.2425    0.9523    9.1315 C.3         1 A02      -0.0124
     35 CAR        21.7431   -0.3717    9.7687 C.3         1 A02      -0.0354
     36 NAC        22.0437   -0.2412   11.1986 N.4         1 A02       0.2185
     37 CCA        16.0686    8.7908    6.7142 C.2         1 A02       0.1782
     38 OAJ        16.8825    8.9414    7.6140 O.2         1 A02      -0.3969
     39 CBH        15.7325    7.4283    6.3033 C.3         1 A02       0.0374
     40 CAY        14.3031    6.9980    6.7430 C.3         1 A02      -0.0360
     41 CAT        14.0821    5.4718    6.9622 C.3         1 A02      -0.0492
     42 CAV        14.1916    4.5531    5.7091 C.3         1 A02      -0.0326
     43 CBC        15.5983    3.9786    5.3935 C.3         1 A02       0.0310
     44 NBQ        16.1551    3.2399    6.4912 N.am        1 A02      -0.2851
     45 NBT        15.4573    9.8342    6.1576 N.am        1 A02      -0.2656
     46 CCJ        15.5328   11.2275    6.5594 C.3         1 A02       0.1310
     47 CBK        14.0919   11.7512    6.8718 C.3         1 A02      -0.0092
     48 CBB        13.0939   11.7121    5.6787 C.3         1 A02      -0.0156
     49 CBF        11.7943   12.5190    5.9425 C.3         1 A02       0.0627
     50 NBP        11.0502   12.0448    7.0344 N.pl3       1 A02      -0.2723
     51 CBX        10.2915   11.0243    7.0815 C.cat       1 A02       0.2882
     52 NAB        10.0619   10.2350    6.0983 N.pl3       1 A02      -0.2849
     53 NAE         9.6940   10.7704    8.1834 N.pl3       1 A02      -0.2849
     54 CCD        16.2511   12.0838    5.6117 C.2         1 A02       0.2039
     55 OAM        16.7154   11.6203    4.5775 O.2         1 A02      -0.3944
     56 N          16.4920   13.3479    5.9528 N.am        1 A02      -0.2637
     57 CA         17.2541   14.3493    5.2491 C.3         1 A02       0.1307
     58 CB         18.6761   14.4148    5.9051 C.3         1 A02      -0.0092
     59 CG         18.7441   14.8384    7.4080 C.3         1 A02      -0.0156
     60 CD         18.9625   16.3616    7.6873 C.3         1 A02       0.0627
     61 NE         18.0754   16.8564    8.6472 N.pl3       1 A02      -0.2723
     62 CZ         18.0895   17.9981    9.2223 C.cat       1 A02       0.2882
     63 NH1        18.9585   18.9185    9.0342 N.pl3       1 A02      -0.2849
     64 NH2        17.1654   18.2382   10.0649 N.pl3       1 A02      -0.2849
     65 C          16.5277   15.6181    5.2177 C.2         1 A02       0.1992
     66 O          15.3719   15.7157    5.6063 O.2         1 A02      -0.3947
     67 NAF        17.0815   16.7242    4.7689 N.am        1 A02      -0.2990
     68 H1          3.6821    9.3053    7.8206 H           1 A02       0.0996
     69 H2          2.2312    4.3594    8.8917 H           1 A02       0.1820
     70 H3          1.6769    5.2530    7.5870 H           1 A02       0.1820
     71 H4          5.1279    5.2502   12.5837 H           1 A02       0.1349
     72 H5          7.4996   10.1929   13.3363 H           1 A02       0.2102
     73 H6          5.3504    9.9655   13.2710 H           1 A02       0.2101
     74 H7          7.4548    7.9701   15.0947 H           1 A02       0.0673
     75 H8          5.5232    7.2490   14.0659 H           1 A02       0.0678
     76 H9          8.8220    8.4970   12.5023 H           1 A02       0.0869
     77 H10         6.2898    8.7712   11.5290 H           1 A02       0.0998
     78 H11        15.4036    4.7633   10.6649 H           1 A02       0.0502
     79 H12        16.0292    3.6043   11.8429 H           1 A02       0.0502
     80 H13        13.8543    2.3430   11.7212 H           1 A02       0.0290
     81 H14        13.2495    3.5185   10.5615 H           1 A02       0.0290
     82 H15        14.1506    4.9738   12.9355 H           1 A02       0.0267
     83 H16        13.1727    3.6161   13.4725 H           1 A02       0.0267
     84 H17        11.3389    4.4190   11.8452 H           1 A02       0.0285
     85 H18        12.3528    5.8358   11.5322 H           1 A02       0.0285
     86 H19        12.2427    6.3628   14.0248 H           1 A02       0.0520
     87 H20        11.1146    5.0186   14.2124 H           1 A02       0.0520
     88 H21        10.7201    7.4521   12.5973 H           1 A02       0.1851
     89 H22        17.5828    3.9091    9.8058 H           1 A02       0.1883
     90 H23        17.3106    1.5920    8.0450 H           1 A02       0.0800
     91 H24        19.6611    3.3336    8.8951 H           1 A02       0.0312
     92 H25        19.7131    2.3633    7.4295 H           1 A02       0.0312
     93 H26        19.1979    0.3080    8.8292 H           1 A02       0.0269
     94 H27        19.4141    1.2965   10.2809 H           1 A02       0.0269
     95 H28        21.7695    1.7990    9.5828 H           1 A02       0.0317
     96 H29        21.5135    0.9283    8.0733 H           1 A02       0.0317
     97 H30        22.6649   -0.6792    9.2728 H           1 A02       0.0813
     98 H31        21.0103   -1.1698    9.6314 H           1 A02       0.0813
     99 H32        22.4113   -1.1259   11.5459 H           1 A02       0.1994
    100 H33        21.1970   -0.0218   11.7197 H           1 A02       0.1994
    101 H34        22.7464    0.4890   11.3363 H           1 A02       0.1994
    102 H35        16.4540    6.7336    6.7407 H           1 A02       0.0502
    103 H36        15.8276    7.3431    5.2182 H           1 A02       0.0502
    104 H37        13.5755    7.3626    6.0132 H           1 A02       0.0290
    105 H38        14.0650    7.4787    7.6959 H           1 A02       0.0290
    106 H39        13.0663    5.3563    7.3546 H           1 A02       0.0267
    107 H40        14.7560    5.1211    7.7452 H           1 A02       0.0267
    108 H41        13.8364    5.1002    4.8312 H           1 A02       0.0285
    109 H42        13.5209    3.7029    5.8443 H           1 A02       0.0285
    110 H43        16.2545    4.7844    5.0620 H           1 A02       0.0520
    111 H44        15.5011    3.2843    4.5597 H           1 A02       0.0520
    112 H45        15.6032    2.5203    6.8468 H           1 A02       0.1851
    113 H46        14.8607    9.6388    5.4182 H           1 A02       0.1883
    114 H47        16.0942   11.3067    7.4949 H           1 A02       0.0800
    115 H48        14.1583   12.7807    7.2369 H           1 A02       0.0313
    116 H49        13.6732   11.1549    7.6908 H           1 A02       0.0313
    117 H50        12.8361   10.6723    5.4568 H           1 A02       0.0301
    118 H51        13.5783   12.1268    4.7931 H           1 A02       0.0301
    119 H52        11.1781   12.5277    5.0387 H           1 A02       0.0689
    120 H53        12.0668   13.5564    6.1436 H           1 A02       0.0689
    121 H54        11.1110   12.5554    7.8180 H           1 A02       0.2642
    122 H55         9.4843    9.5084    6.2051 H           1 A02       0.2615
    123 H56        10.4669   10.3855    5.2696 H           1 A02       0.2615
    124 H57         9.8273   11.3209    8.9285 H           1 A02       0.2615
    125 H58         9.1234   10.0332    8.2504 H           1 A02       0.2615
    126 H59        16.1568   13.6342    6.8180 H           1 A02       0.1883
    127 H60        17.3913   14.0534    4.2012 H           1 A02       0.0800
    128 H61        19.3237   15.0655    5.3119 H           1 A02       0.0313
    129 H62        19.1118   13.4136    5.8235 H           1 A02       0.0313
    130 H63        19.5725   14.2981    7.8689 H           1 A02       0.0301
    131 H64        17.8528   14.4692    7.9170 H           1 A02       0.0301
    132 H65        18.8497   16.9489    6.7734 H           1 A02       0.0689
    133 H66        19.9851   16.5035    8.0455 H           1 A02       0.0689
    134 H67        17.3782   16.2908    8.8921 H           1 A02       0.2642
    135 H68        18.8905   19.7095    9.5296 H           1 A02       0.2615
    136 H69        19.6673   18.7934    8.4388 H           1 A02       0.2615
    137 H70        16.5276   17.5797   10.2499 H           1 A02       0.2615
    138 H71        17.1380   19.0654   10.4993 H           1 A02       0.2615
    139 H72        16.5753   17.5513    4.7755 H           1 A02       0.1815
    140 H73        18.0071   16.7293    4.4751 H           1 A02       0.1815
@<TRIPOS>BOND
     1     2     1  ar
     2     6     1  ar
     3     3     2  ar
     4     4     3  ar
     5     4     5  ar
     6    10     4   1
     7     5     6  ar
     8     8     5   1
     9     6     7   1
    10     9     8   2
    11    10     9   1
    12    19    10   1
    13    15    11   2
    14    16    12   1
    15    17    13   1
    16    18    14   1
    17    14    19   1
    18    15    18   1
    19    27    15  am
    20    16    17   1
    21    18    16   1
    22    17    19   1
    23    20    21   2
    24    20    22   1
    25    28    20  am
    26    22    23   1
    27    23    24   1
    28    24    25   1
    29    25    26   1
    30    26    27   1
    31    29    28   1
    32    30    29   1
    33    29    32   1
    34    30    31   2
    35    44    30  am
    36    32    33   1
    37    33    34   1
    38    34    35   1
    39    35    36   1
    40    37    38   2
    41    39    37   1
    42    37    45  am
    43    40    39   1
    44    41    40   1
    45    42    41   1
    46    43    42   1
    47    43    44   1
    48    45    46   1
    49    46    47   1
    50    46    54   1
    51    47    48   1
    52    48    49   1
    53    49    50   1
    54    50    51  ar
    55    51    52  ar
    56    51    53  ar
    57    54    55   2
    58    54    56  am
    59    56    57   1
    60    57    58   1
    61    57    65   1
    62    58    59   1
    63    59    60   1
    64    60    61   1
    65    61    62  ar
    66    62    63  ar
    67    62    64  ar
    68    65    66   2
    69    65    67  am
    70     2    68   1
    71     7    69   1
    72     7    70   1
    73     9    71   1
    74    12    72   1
    75    13    73   1
    76    16    74   1
    77    17    75   1
    78    18    76   1
    79    19    77   1
    80    22    78   1
    81    22    79   1
    82    23    80   1
    83    23    81   1
    84    24    82   1
    85    24    83   1
    86    25    84   1
    87    25    85   1
    88    26    86   1
    89    26    87   1
    90    27    88   1
    91    28    89   1
    92    29    90   1
    93    32    91   1
    94    32    92   1
    95    33    93   1
    96    33    94   1
    97    34    95   1
    98    34    96   1
    99    35    97   1
   100    35    98   1
   101    36    99   1
   102    36   100   1
   103    36   101   1
   104    39   102   1
   105    39   103   1
   106    40   104   1
   107    40   105   1
   108    41   106   1
   109    41   107   1
   110    42   108   1
   111    42   109   1
   112    43   110   1
   113    43   111   1
   114    44   112   1
   115    45   113   1
   116    46   114   1
   117    47   115   1
   118    47   116   1
   119    48   117   1
   120    48   118   1
   121    49   119   1
   122    49   120   1
   123    50   121   1
   124    52   122   1
   125    52   123   1
   126    53   124   1
   127    53   125   1
   128    56   126   1
   129    57   127   1
   130    58   128   1
   131    58   129   1
   132    59   130   1
   133    59   131   1
   134    60   132   1
   135    60   133   1
   136    61   134   1
   137    63   135   1
   138    63   136   1
   139    64   137   1
   140    64   138   1
   141    67   139   1
   142    67   140   1
@<TRIPOS>SUBSTRUCTURE
     1  A02      2

