@<TRIPOS>MOLECULE
3ag9_ligand_026
   140   142
SMALL
GAST_HUCK
****
This file was generated by PARSER (from files_GN.cpp)

@<TRIPOS>ATOM
      1 N1         12.6428    2.6244   14.1906 N.ar        1 A02      -0.2698
      2 C2         12.8102    3.0777   12.9154 C.ar        1 A02       0.0533
      3 N3         11.7418    3.5387   12.2100 N.ar        1 A02      -0.2714
      4 C4         10.5078    3.5497   12.7777 C.ar        1 A02       0.1613
      5 C5         10.3157    3.0921   14.0786 C.ar        1 A02       0.1045
      6 C6         11.4262    2.6199   14.7993 C.ar        1 A02       0.1298
      7 N6         11.3049    2.1618   16.0552 N.pl3       1 A02      -0.3152
      8 N7          9.0126    3.1990   14.3768 N.2         1 A02      -0.2958
      9 C8          8.4140    3.7059   13.2820 C.2         1 A02       0.1123
     10 N9          9.3089    3.9245   12.2958 N.pl3       1 A02      -0.1918
     11 OAL        12.2962    4.3822    9.2457 O.2         1 A02      -0.3941
     12 OAN         8.6046    6.3602    8.5403 O.3         1 A02      -0.3840
     13 OAO         8.7624    6.8727   11.2348 O.3         1 A02      -0.3834
     14 OBV         9.6332    3.5691    9.9969 O.3         1 A02      -0.3181
     15 CCC        11.3893    4.0131    8.5096 C.2         1 A02       0.2080
     16 CCK         9.7690    5.8513    9.2018 C.3         1 A02       0.1295
     17 CCL         9.6013    5.8346   10.7281 C.3         1 A02       0.1408
     18 CCM        10.0139    4.3553    8.8574 C.3         1 A02       0.1788
     19 CCN         9.0329    4.4249   10.9776 C.3         1 A02       0.2035
     20 CBZ        16.1489    1.0025    5.8899 C.2         1 A02       0.1782
     21 OAI        15.6980    0.8089    4.7690 O.2         1 A02      -0.3969
     22 CBG        15.9268    0.0012    6.9224 C.3         1 A02       0.0374
     23 CAX        15.0688    0.4828    8.1344 C.3         1 A02      -0.0360
     24 CAU        13.5191    0.4614    7.9611 C.3         1 A02      -0.0492
     25 CAW        12.9241    1.2673    6.7720 C.3         1 A02      -0.0326
     26 CBD        12.9041    2.8136    6.9485 C.3         1 A02       0.0310
     27 NBR        11.6365    3.2634    7.4407 N.am        1 A02      -0.2847
     28 NBS        16.8122    2.1155    6.1804 N.am        1 A02      -0.2656
     29 CCI        16.9345    3.2985    5.3649 C.3         1 A02       0.1308
     30 CCB        17.0627    4.4837    6.2078 C.2         1 A02       0.2016
     31 OAK        17.5277    4.3779    7.3362 O.2         1 A02      -0.3945
     32 CBJ        18.0739    3.2329    4.2932 C.3         1 A02      -0.0122
     33 CAZ        19.4905    3.7059    4.7439 C.3         1 A02      -0.0440
     34 CAS        20.5884    3.4841    3.6648 C.3         1 A02      -0.0124
     35 CAR        21.9943    3.1972    4.2558 C.3         1 A02      -0.0354
     36 NAC        22.5642    4.3421    4.9744 N.4         1 A02       0.2185
     37 CCA        18.2414   11.5606    4.7469 C.2         1 A02       0.1782
     38 OAJ        18.8255   12.6300    4.8586 O.2         1 A02      -0.3969
     39 CBH        18.9735   10.4436    4.1868 C.3         1 A02       0.0374
     40 CAY        19.7761    9.6632    5.2693 C.3         1 A02      -0.0360
     41 CAT        18.8901    8.8670    6.2686 C.3         1 A02      -0.0492
     42 CAV        18.5190    7.4360    5.7780 C.3         1 A02      -0.0326
     43 CBC        17.1499    6.9355    6.3002 C.3         1 A02       0.0310
     44 NBQ        16.8364    5.6837    5.6859 N.am        1 A02      -0.2851
     45 NBT        17.0015   11.3991    5.2039 N.am        1 A02      -0.2656
     46 CCJ        16.1950   12.4297    5.8059 C.3         1 A02       0.1310
     47 CBK        14.8996   11.8292    6.4453 C.3         1 A02      -0.0092
     48 CBB        15.1571   10.9961    7.7374 C.3         1 A02      -0.0156
     49 CBF        13.8488   10.5511    8.4432 C.3         1 A02       0.0627
     50 NBP        13.2179    9.5208    7.7412 N.pl3       1 A02      -0.2723
     51 CBX        11.9900    9.1730    7.8070 C.cat       1 A02       0.2882
     52 NAB        11.0929    9.7362    8.5262 N.pl3       1 A02      -0.2849
     53 NAE        11.6277    8.1849    7.0843 N.pl3       1 A02      -0.2849
     54 CCD        15.8696   13.5106    4.8784 C.2         1 A02       0.2039
     55 OAM        15.9926   13.3593    3.6641 O.2         1 A02      -0.3944
     56 N          15.4937   14.6716    5.3886 N.am        1 A02      -0.2637
     57 CA         15.3122   15.9150    4.6967 C.3         1 A02       0.1307
     58 CB         16.1824   16.9946    5.4067 C.3         1 A02      -0.0092
     59 CG         17.6393   16.5600    5.7563 C.3         1 A02      -0.0156
     60 CD         18.3588   17.5708    6.6875 C.3         1 A02       0.0627
     61 NE         17.8409   17.4987    7.9865 N.pl3       1 A02      -0.2723
     62 CZ         18.0202   18.3304    8.9435 C.cat       1 A02       0.2882
     63 NH1        18.7397   19.3844    8.8847 N.pl3       1 A02      -0.2849
     64 NH2        17.4239   18.1048   10.0506 N.pl3       1 A02      -0.2849
     65 C          13.9076   16.3175    4.6687 C.2         1 A02       0.1992
     66 O          13.6165   17.4574    4.3409 O.2         1 A02      -0.3947
     67 NAF        12.9155   15.5218    5.0119 N.am        1 A02      -0.2990
     68 H1         13.7360    3.0664   12.4861 H           1 A02       0.0996
     69 H2         10.4373    2.1521   16.4876 H           1 A02       0.1820
     70 H3         12.0859    1.8388   16.5314 H           1 A02       0.1820
     71 H4          7.4095    3.8885   13.2187 H           1 A02       0.1349
     72 H5          7.8681    5.7449    8.7490 H           1 A02       0.2102
     73 H6          7.8950    6.7538   10.7939 H           1 A02       0.2101
     74 H7         10.6113    6.4885    8.9204 H           1 A02       0.0673
     75 H8         10.5844    5.9374   11.1958 H           1 A02       0.0678
     76 H9          9.3520    4.0707    8.0369 H           1 A02       0.0869
     77 H10         7.9523    4.4364   10.7927 H           1 A02       0.0998
     78 H11        16.9064   -0.3033    7.2970 H           1 A02       0.0502
     79 H12        15.4591   -0.8948    6.5014 H           1 A02       0.0502
     80 H13        15.3886    1.4782    8.4533 H           1 A02       0.0290
     81 H14        15.2936   -0.1874    8.9684 H           1 A02       0.0290
     82 H15        13.0629    0.8266    8.8867 H           1 A02       0.0267
     83 H16        13.2113   -0.5817    7.8486 H           1 A02       0.0267
     84 H17        11.9004    0.9155    6.6015 H           1 A02       0.0285
     85 H18        13.4766    1.0190    5.8668 H           1 A02       0.0285
     86 H19        13.0354    3.2804    5.9711 H           1 A02       0.0520
     87 H20        13.7358    3.1410    7.5730 H           1 A02       0.0520
     88 H21        10.8633    2.9854    6.9213 H           1 A02       0.1851
     89 H22        17.1484    2.1836    7.0858 H           1 A02       0.1883
     90 H23        15.9843    3.3951    4.8234 H           1 A02       0.0800
     91 H24        17.7781    3.8450    3.4341 H           1 A02       0.0312
     92 H25        18.1524    2.2052    3.9352 H           1 A02       0.0312
     93 H26        19.7576    3.1826    5.6649 H           1 A02       0.0269
     94 H27        19.4507    4.7739    4.9716 H           1 A02       0.0269
     95 H28        20.6455    4.3632    3.0182 H           1 A02       0.0317
     96 H29        20.3148    2.6342    3.0363 H           1 A02       0.0317
     97 H30        22.6821    2.9345    3.4500 H           1 A02       0.0813
     98 H31        21.9408    2.3506    4.9423 H           1 A02       0.0813
     99 H32        23.4601    4.0637    5.3847 H           1 A02       0.1994
    100 H33        21.9311    4.6382    5.7205 H           1 A02       0.1994
    101 H34        22.7184    5.1190    4.3280 H           1 A02       0.1994
    102 H35        19.6696   10.8184    3.4316 H           1 A02       0.0502
    103 H36        18.2895    9.7744    3.6623 H           1 A02       0.0502
    104 H37        20.3933   10.3708    5.8338 H           1 A02       0.0290
    105 H38        20.4602    8.9672    4.7737 H           1 A02       0.0290
    106 H39        17.9882    9.4462    6.4681 H           1 A02       0.0267
    107 H40        19.4260    8.7831    7.2196 H           1 A02       0.0267
    108 H41        19.3054    6.7493    6.1008 H           1 A02       0.0285
    109 H42        18.4865    7.3880    4.6890 H           1 A02       0.0285
    110 H43        16.3705    7.6475    6.0197 H           1 A02       0.0520
    111 H44        17.1603    6.8662    7.3924 H           1 A02       0.0520
    112 H45        16.5525    5.7163    4.7584 H           1 A02       0.1851
    113 H46        16.6139   10.5114    5.1404 H           1 A02       0.1883
    114 H47        16.7911   12.8692    6.6153 H           1 A02       0.0800
    115 H48        14.3811   11.2074    5.7062 H           1 A02       0.0313
    116 H49        14.2162   12.6421    6.7131 H           1 A02       0.0313
    117 H50        15.7276   11.6074    8.4431 H           1 A02       0.0301
    118 H51        15.7646   10.1203    7.4936 H           1 A02       0.0301
    119 H52        13.1889   11.4187    8.5360 H           1 A02       0.0689
    120 H53        14.0883   10.1981    9.4494 H           1 A02       0.0689
    121 H54        13.7575    9.0297    7.1547 H           1 A02       0.2642
    122 H55        10.2162    9.4138    8.5049 H           1 A02       0.2615
    123 H56        11.2939   10.4715    9.0673 H           1 A02       0.2615
    124 H57        12.2512    7.7434    6.5432 H           1 A02       0.2615
    125 H58        10.7384    7.8941    7.0934 H           1 A02       0.2615
    126 H59        15.3967   14.7062    6.3550 H           1 A02       0.1883
    127 H60        15.6561   15.8315    3.6602 H           1 A02       0.0800
    128 H61        15.6697   17.2918    6.3273 H           1 A02       0.0313
    129 H62        16.2433   17.8785    4.7660 H           1 A02       0.0313
    130 H63        18.2121   16.4619    4.8300 H           1 A02       0.0301
    131 H64        17.6336   15.5835    6.2497 H           1 A02       0.0301
    132 H65        18.2324   18.5764    6.2774 H           1 A02       0.0689
    133 H66        19.4282   17.3420    6.7155 H           1 A02       0.0689
    134 H67        17.2767   16.7721    8.1730 H           1 A02       0.2642
    135 H68        18.7937   19.9402    9.6361 H           1 A02       0.2615
    136 H69        19.2012   19.6081    8.1024 H           1 A02       0.2615
    137 H70        16.8848   17.3447   10.1538 H           1 A02       0.2615
    138 H71        17.5242   18.7147   10.7545 H           1 A02       0.2615
    139 H72        12.0054   15.8503    4.9905 H           1 A02       0.1815
    140 H73        13.0892   14.6139    5.3020 H           1 A02       0.1815
@<TRIPOS>BOND
     1     2     1  ar
     2     6     1  ar
     3     3     2  ar
     4     4     3  ar
     5     4     5  ar
     6    10     4   1
     7     5     6  ar
     8     8     5   1
     9     6     7   1
    10     9     8   2
    11    10     9   1
    12    19    10   1
    13    15    11   2
    14    16    12   1
    15    17    13   1
    16    18    14   1
    17    14    19   1
    18    15    18   1
    19    27    15  am
    20    16    17   1
    21    18    16   1
    22    17    19   1
    23    20    21   2
    24    20    22   1
    25    28    20  am
    26    22    23   1
    27    23    24   1
    28    24    25   1
    29    25    26   1
    30    26    27   1
    31    29    28   1
    32    30    29   1
    33    29    32   1
    34    30    31   2
    35    44    30  am
    36    32    33   1
    37    33    34   1
    38    34    35   1
    39    35    36   1
    40    37    38   2
    41    39    37   1
    42    37    45  am
    43    40    39   1
    44    41    40   1
    45    42    41   1
    46    43    42   1
    47    43    44   1
    48    45    46   1
    49    46    47   1
    50    46    54   1
    51    47    48   1
    52    48    49   1
    53    49    50   1
    54    50    51  ar
    55    51    52  ar
    56    51    53  ar
    57    54    55   2
    58    54    56  am
    59    56    57   1
    60    57    58   1
    61    57    65   1
    62    58    59   1
    63    59    60   1
    64    60    61   1
    65    61    62  ar
    66    62    63  ar
    67    62    64  ar
    68    65    66   2
    69    65    67  am
    70     2    68   1
    71     7    69   1
    72     7    70   1
    73     9    71   1
    74    12    72   1
    75    13    73   1
    76    16    74   1
    77    17    75   1
    78    18    76   1
    79    19    77   1
    80    22    78   1
    81    22    79   1
    82    23    80   1
    83    23    81   1
    84    24    82   1
    85    24    83   1
    86    25    84   1
    87    25    85   1
    88    26    86   1
    89    26    87   1
    90    27    88   1
    91    28    89   1
    92    29    90   1
    93    32    91   1
    94    32    92   1
    95    33    93   1
    96    33    94   1
    97    34    95   1
    98    34    96   1
    99    35    97   1
   100    35    98   1
   101    36    99   1
   102    36   100   1
   103    36   101   1
   104    39   102   1
   105    39   103   1
   106    40   104   1
   107    40   105   1
   108    41   106   1
   109    41   107   1
   110    42   108   1
   111    42   109   1
   112    43   110   1
   113    43   111   1
   114    44   112   1
   115    45   113   1
   116    46   114   1
   117    47   115   1
   118    47   116   1
   119    48   117   1
   120    48   118   1
   121    49   119   1
   122    49   120   1
   123    50   121   1
   124    52   122   1
   125    52   123   1
   126    53   124   1
   127    53   125   1
   128    56   126   1
   129    57   127   1
   130    58   128   1
   131    58   129   1
   132    59   130   1
   133    59   131   1
   134    60   132   1
   135    60   133   1
   136    61   134   1
   137    63   135   1
   138    63   136   1
   139    64   137   1
   140    64   138   1
   141    67   139   1
   142    67   140   1
@<TRIPOS>SUBSTRUCTURE
     1  A02      2

