@<TRIPOS>MOLECULE
3ag9_ligand_053
   140   142
SMALL
GAST_HUCK
****
This file was generated by PARSER (from files_GN.cpp)

@<TRIPOS>ATOM
      1 N1         16.3686    1.1249    5.0165 N.ar        1 A02      -0.2698
      2 C2         15.5955    0.4424    5.9055 C.ar        1 A02       0.0533
      3 N3         14.7353    1.1123    6.7204 N.ar        1 A02      -0.2714
      4 C4         14.6544    2.4662    6.6515 C.ar        1 A02       0.1613
      5 C5         15.4643    3.1869    5.7741 C.ar        1 A02       0.1045
      6 C6         16.3477    2.4832    4.9385 C.ar        1 A02       0.1298
      7 N6         17.1425    3.1191    4.0646 N.pl3       1 A02      -0.3152
      8 N7         15.1818    4.4887    5.9046 N.2         1 A02      -0.2958
      9 C8         14.2235    4.5753    6.8456 C.2         1 A02       0.1123
     10 N9         13.8901    3.3479    7.3154 N.pl3       1 A02      -0.1918
     11 OAL         9.7445    5.3021    7.3522 O.2         1 A02      -0.3941
     12 OAN        11.6602    5.0331   11.1390 O.3         1 A02      -0.3840
     13 OAO        13.1762    2.8205   10.7514 O.3         1 A02      -0.3834
     14 OBV        11.6165    3.5155    7.8546 O.3         1 A02      -0.3181
     15 CCC         9.8991    5.0603    8.5441 C.2         1 A02       0.2080
     16 CCK        12.0417    4.7691    9.7890 C.3         1 A02       0.1295
     17 CCL        13.1885    3.7551    9.6713 C.3         1 A02       0.1408
     18 CCM        10.9209    4.1118    8.9603 C.3         1 A02       0.1788
     19 CCN        12.9005    3.0588    8.3155 C.3         1 A02       0.2035
     20 CBZ        10.4354   10.3255    7.2087 C.2         1 A02       0.1782
     21 OAI        10.7462    9.6415    6.2408 O.2         1 A02      -0.3969
     22 CBG         9.1531   11.0070    7.2118 C.3         1 A02       0.0374
     23 CAX         8.1557   10.5205    8.3036 C.3         1 A02      -0.0360
     24 CAU         7.7667    9.0128    8.2764 C.3         1 A02      -0.0492
     25 CAW         8.6951    8.0670    9.0913 C.3         1 A02      -0.0326
     26 CBD         8.1266    6.6317    9.2338 C.3         1 A02       0.0310
     27 NBR         9.1450    5.6530    9.4630 N.am        1 A02      -0.2847
     28 NBS        11.2409   10.4405    8.2586 N.am        1 A02      -0.2656
     29 CCI        12.4986    9.7752    8.4652 C.3         1 A02       0.1308
     30 CCB        13.4996   10.2886    7.5360 C.2         1 A02       0.2016
     31 OAK        13.9462   11.4127    7.7281 O.2         1 A02      -0.3945
     32 CBJ        12.9265    9.9439    9.9602 C.3         1 A02      -0.0122
     33 CAZ        14.2262    9.2122   10.4050 C.3         1 A02      -0.0440
     34 CAS        14.1498    7.6701   10.2541 C.3         1 A02      -0.0124
     35 CAR        15.4609    6.9066   10.5517 C.3         1 A02      -0.0354
     36 NAC        16.6565    7.5677   10.0197 N.4         1 A02       0.2185
     37 CCA        15.4435   14.9040    4.7542 C.2         1 A02       0.1782
     38 OAJ        15.3569   14.7891    3.5381 O.2         1 A02      -0.3969
     39 CBH        15.0200   13.7933    5.5916 C.3         1 A02       0.0374
     40 CAY        16.2104   13.0265    6.2439 C.3         1 A02      -0.0360
     41 CAT        16.7320   11.7759    5.4647 C.3         1 A02      -0.0492
     42 CAV        16.1843   10.3962    5.9452 C.3         1 A02      -0.0326
     43 CBC        14.7615   10.0029    5.4413 C.3         1 A02       0.0310
     44 NBQ        13.8681    9.5758    6.4769 N.am        1 A02      -0.2851
     45 NBT        15.9127   16.0118    5.3202 N.am        1 A02      -0.2656
     46 CCJ        16.3956   17.1829    4.6347 C.3         1 A02       0.1310
     47 CBK        17.0171   18.2268    5.6228 C.3         1 A02      -0.0092
     48 CBB        18.5291   18.0665    5.9543 C.3         1 A02      -0.0156
     49 CBF        18.8881   17.0628    7.0824 C.3         1 A02       0.0627
     50 NBP        18.1539   17.1992    8.2674 N.pl3       1 A02      -0.2723
     51 CBX        18.1893   18.1590    9.1134 C.cat       1 A02       0.2882
     52 NAB        18.9133   19.2070    9.0357 N.pl3       1 A02      -0.2849
     53 NAE        17.4392   18.0686   10.1429 N.pl3       1 A02      -0.2849
     54 CCD        15.3325   17.7934    3.8328 C.2         1 A02       0.2039
     55 OAM        15.3217   17.5657    2.6323 O.2         1 A02      -0.3944
     56 N          14.4203   18.5757    4.4068 N.am        1 A02      -0.2637
     57 CA         13.3257   19.3270    3.8341 C.3         1 A02       0.1307
     58 CB         11.9834   18.5352    4.0003 C.3         1 A02      -0.0092
     59 CG         12.0492   16.9876    4.1417 C.3         1 A02      -0.0156
     60 CD         12.1091   16.1876    2.8177 C.3         1 A02       0.0627
     61 NE         12.1473   14.8152    3.0810 N.pl3       1 A02      -0.2723
     62 CZ         12.1446   13.8627    2.2182 C.cat       1 A02       0.2882
     63 NH1        12.0943   14.0328    0.9502 N.pl3       1 A02      -0.2849
     64 NH2        12.1960   12.6636    2.6550 N.pl3       1 A02      -0.2849
     65 C          13.5392   19.9395    2.5197 C.2         1 A02       0.1992
     66 O          12.8802   19.6426    1.5341 O.2         1 A02      -0.3947
     67 NAF        14.4738   20.8541    2.3596 N.am        1 A02      -0.2990
     68 H1         15.6569   -0.5745    5.9575 H           1 A02       0.0996
     69 H2         17.1296    4.0878    4.0114 H           1 A02       0.1820
     70 H3         17.6695    2.6120    3.4267 H           1 A02       0.1820
     71 H4         13.8079    5.4556    7.1543 H           1 A02       0.1349
     72 H5         12.4663    5.3939   11.5673 H           1 A02       0.2102
     73 H6         14.0045    2.3048   10.6510 H           1 A02       0.2101
     74 H7         12.3433    5.7089    9.3155 H           1 A02       0.0673
     75 H8         14.1544    4.2664    9.6853 H           1 A02       0.0678
     76 H9         10.4442    3.3089    9.5369 H           1 A02       0.0869
     77 H10        12.8281    1.9769    8.4697 H           1 A02       0.0998
     78 H11         8.6646   10.9180    6.2367 H           1 A02       0.0502
     79 H12         9.3452   12.0716    7.3744 H           1 A02       0.0502
     80 H13         7.2324   11.0970    8.1726 H           1 A02       0.0290
     81 H14         8.5388   10.7759    9.2951 H           1 A02       0.0290
     82 H15         7.7240    8.6736    7.2386 H           1 A02       0.0267
     83 H16         6.7557    8.9369    8.6864 H           1 A02       0.0267
     84 H17         8.8430    8.4796   10.0913 H           1 A02       0.0285
     85 H18         9.6650    8.0070    8.5978 H           1 A02       0.0285
     86 H19         7.5425    6.3608    8.3496 H           1 A02       0.0520
     87 H20         7.4565    6.6092   10.0967 H           1 A02       0.0520
     88 H21         9.2877    5.3830   10.3853 H           1 A02       0.1851
     89 H22        10.9260   11.0014    8.9832 H           1 A02       0.1883
     90 H23        12.3267    8.7071    8.2955 H           1 A02       0.0800
     91 H24        12.1053    9.5941   10.5942 H           1 A02       0.0312
     92 H25        13.0580   11.0093   10.1723 H           1 A02       0.0312
     93 H26        14.4068    9.4527   11.4561 H           1 A02       0.0269
     94 H27        15.0716    9.5933    9.8279 H           1 A02       0.0269
     95 H28        13.8456    7.4289    9.2336 H           1 A02       0.0317
     96 H29        13.3853    7.2939   10.9375 H           1 A02       0.0317
     97 H30        15.3993    5.9118   10.1041 H           1 A02       0.0813
     98 H31        15.5853    6.7853   11.6300 H           1 A02       0.0813
     99 H32        17.4406    6.9241   10.1054 H           1 A02       0.1994
    100 H33        16.8470    8.4023   10.5748 H           1 A02       0.1994
    101 H34        16.5260    7.8083    9.0346 H           1 A02       0.1994
    102 H35        14.4014   13.1032    5.0142 H           1 A02       0.0502
    103 H36        14.3711   14.1858    6.3799 H           1 A02       0.0502
    104 H37        15.9208   12.7223    7.2535 H           1 A02       0.0290
    105 H38        17.0460   13.7217    6.3772 H           1 A02       0.0290
    106 H39        17.8184   11.7428    5.5944 H           1 A02       0.0267
    107 H40        16.5555   11.8923    4.3921 H           1 A02       0.0267
    108 H41        16.2250   10.3614    7.0371 H           1 A02       0.0285
    109 H42        16.8818    9.6286    5.5956 H           1 A02       0.0285
    110 H43        14.8586    9.1659    4.7458 H           1 A02       0.0520
    111 H44        14.2929   10.8106    4.8783 H           1 A02       0.0520
    112 H45        13.4585    8.7021    6.3655 H           1 A02       0.1851
    113 H46        15.9672   16.0088    6.2915 H           1 A02       0.1883
    114 H47        17.1991   16.8548    3.9657 H           1 A02       0.0800
    115 H48        16.4428   18.2374    6.5547 H           1 A02       0.0313
    116 H49        16.9206   19.2279    5.1869 H           1 A02       0.0313
    117 H50        18.9186   19.0515    6.2286 H           1 A02       0.0301
    118 H51        19.0628   17.7721    5.0455 H           1 A02       0.0301
    119 H52        19.9530   17.1550    7.3116 H           1 A02       0.0689
    120 H53        18.7288   16.0515    6.7046 H           1 A02       0.0689
    121 H54        17.5836   16.4876    8.4801 H           1 A02       0.2642
    122 H55        18.8553   19.8513    9.7121 H           1 A02       0.2615
    123 H56        19.5036   19.3344    8.3221 H           1 A02       0.2615
    124 H57        16.9012   17.3126   10.2705 H           1 A02       0.2615
    125 H58        17.4433   18.7611   10.7736 H           1 A02       0.2615
    126 H59        14.4973   18.6595    5.3725 H           1 A02       0.1883
    127 H60        13.2215   20.1947    4.4951 H           1 A02       0.0800
    128 H61        11.3022   18.7865    3.1829 H           1 A02       0.0313
    129 H62        11.5022   18.9022    4.9120 H           1 A02       0.0313
    130 H63        11.1530   16.6744    4.6829 H           1 A02       0.0301
    131 H64        12.9096   16.7181    4.7591 H           1 A02       0.0301
    132 H65        13.0063   16.4679    2.2601 H           1 A02       0.0689
    133 H66        11.2270   16.4263    2.2161 H           1 A02       0.0689
    134 H67        12.1845   14.5563    3.9792 H           1 A02       0.2642
    135 H68        12.0950   13.2922    0.3819 H           1 A02       0.2615
    136 H69        12.0536   14.8933    0.5910 H           1 A02       0.2615
    137 H70        12.2350   12.5011    3.5746 H           1 A02       0.2615
    138 H71        12.1968   11.9476    2.0556 H           1 A02       0.2615
    139 H72        14.6061   21.2678    1.4910 H           1 A02       0.1815
    140 H73        15.0224   21.1319    3.1127 H           1 A02       0.1815
@<TRIPOS>BOND
     1     2     1  ar
     2     6     1  ar
     3     3     2  ar
     4     4     3  ar
     5     4     5  ar
     6    10     4   1
     7     5     6  ar
     8     8     5   1
     9     6     7   1
    10     9     8   2
    11    10     9   1
    12    19    10   1
    13    15    11   2
    14    16    12   1
    15    17    13   1
    16    18    14   1
    17    14    19   1
    18    15    18   1
    19    27    15  am
    20    16    17   1
    21    18    16   1
    22    17    19   1
    23    20    21   2
    24    20    22   1
    25    28    20  am
    26    22    23   1
    27    23    24   1
    28    24    25   1
    29    25    26   1
    30    26    27   1
    31    29    28   1
    32    30    29   1
    33    29    32   1
    34    30    31   2
    35    44    30  am
    36    32    33   1
    37    33    34   1
    38    34    35   1
    39    35    36   1
    40    37    38   2
    41    39    37   1
    42    37    45  am
    43    40    39   1
    44    41    40   1
    45    42    41   1
    46    43    42   1
    47    43    44   1
    48    45    46   1
    49    46    47   1
    50    46    54   1
    51    47    48   1
    52    48    49   1
    53    49    50   1
    54    50    51  ar
    55    51    52  ar
    56    51    53  ar
    57    54    55   2
    58    54    56  am
    59    56    57   1
    60    57    58   1
    61    57    65   1
    62    58    59   1
    63    59    60   1
    64    60    61   1
    65    61    62  ar
    66    62    63  ar
    67    62    64  ar
    68    65    66   2
    69    65    67  am
    70     2    68   1
    71     7    69   1
    72     7    70   1
    73     9    71   1
    74    12    72   1
    75    13    73   1
    76    16    74   1
    77    17    75   1
    78    18    76   1
    79    19    77   1
    80    22    78   1
    81    22    79   1
    82    23    80   1
    83    23    81   1
    84    24    82   1
    85    24    83   1
    86    25    84   1
    87    25    85   1
    88    26    86   1
    89    26    87   1
    90    27    88   1
    91    28    89   1
    92    29    90   1
    93    32    91   1
    94    32    92   1
    95    33    93   1
    96    33    94   1
    97    34    95   1
    98    34    96   1
    99    35    97   1
   100    35    98   1
   101    36    99   1
   102    36   100   1
   103    36   101   1
   104    39   102   1
   105    39   103   1
   106    40   104   1
   107    40   105   1
   108    41   106   1
   109    41   107   1
   110    42   108   1
   111    42   109   1
   112    43   110   1
   113    43   111   1
   114    44   112   1
   115    45   113   1
   116    46   114   1
   117    47   115   1
   118    47   116   1
   119    48   117   1
   120    48   118   1
   121    49   119   1
   122    49   120   1
   123    50   121   1
   124    52   122   1
   125    52   123   1
   126    53   124   1
   127    53   125   1
   128    56   126   1
   129    57   127   1
   130    58   128   1
   131    58   129   1
   132    59   130   1
   133    59   131   1
   134    60   132   1
   135    60   133   1
   136    61   134   1
   137    63   135   1
   138    63   136   1
   139    64   137   1
   140    64   138   1
   141    67   139   1
   142    67   140   1
@<TRIPOS>SUBSTRUCTURE
     1  A02      2

