@<TRIPOS>MOLECULE
3ao4_ligand_047
    27    29
SMALL
GAST_HUCK
****
This file was generated by PARSER (from files_GN.cpp)

@<TRIPOS>ATOM
      1 C1          9.4785   19.4492  -12.2128 C.ar        1 MOL      -0.0342
      2 C2          8.6445   19.9899  -11.1971 C.ar        1 MOL      -0.0388
      3 C3          9.1033   21.1439  -10.5015 C.ar        1 MOL      -0.0738
      4 C4         10.3448   21.7397  -10.8078 C.ar        1 MOL      -0.0397
      5 C5         11.1367   21.1759  -11.8200 C.ar        1 MOL       0.1245
      6 C6         10.7119   20.0528  -12.5061 C.ar        1 MOL       0.1240
      7 O7         11.6017   19.6686  -13.4407 O.3         1 MOL      -0.2908
      8 C8         12.6802   20.5967  -13.2173 C.3         1 MOL       0.1873
      9 O9         12.3326   21.6128  -12.2568 O.3         1 MOL      -0.2900
     10 C10         7.3894   19.3847  -10.9059 C.2         1 MOL       0.0041
     11 C11         6.4366   19.7444   -9.9508 C.2         1 MOL      -0.0320
     12 C12         5.3927   18.8460  -10.0820 C.2         1 MOL       0.1510
     13 N13         5.7228   17.9876  -11.0643 N.pl3       1 MOL      -0.1966
     14 N14         6.8879   18.3078  -11.5451 N.2         1 MOL      -0.2405
     15 N15         4.2659   18.8517   -9.3456 N.pl3       1 MOL      -0.3098
     16 C16         4.9481   16.8854  -11.5336 C.3         1 MOL       0.0578
     17 H1          9.1993   18.6239  -12.7474 H           1 MOL       0.0507
     18 H2          8.5411   21.5687   -9.7657 H           1 MOL       0.0503
     19 H3         10.6637   22.5680  -10.3029 H           1 MOL       0.0514
     20 H4         12.9446   21.0712  -14.1645 H           1 MOL       0.0974
     21 H5         13.5527   20.0492  -12.8523 H           1 MOL       0.0974
     22 H6          6.4777   20.5187   -9.2862 H           1 MOL       0.0169
     23 H7          4.1447   19.4897   -8.6250 H           1 MOL       0.1782
     24 H8          3.5958   18.1682   -9.4949 H           1 MOL       0.1782
     25 H9          5.4466   16.3746  -12.3616 H           1 MOL       0.0589
     26 H10         3.9747   17.2370  -11.8829 H           1 MOL       0.0589
     27 H11         4.7999   16.1682  -10.7233 H           1 MOL       0.0589
@<TRIPOS>BOND
     1     1     2  ar
     2     1     6  ar
     3     2     3  ar
     4     2    10   1
     5     3     4  ar
     6     4     5  ar
     7     5     6  ar
     8     5     9   1
     9     6     7   1
    10     7     8   1
    11     8     9   1
    12    10    11   1
    13    10    14   2
    14    11    12   2
    15    12    13   1
    16    12    15   1
    17    13    14   1
    18    13    16   1
    19     1    17   1
    20     3    18   1
    21     4    19   1
    22     8    20   1
    23     8    21   1
    24    11    22   1
    25    15    23   1
    26    15    24   1
    27    16    25   1
    28    16    26   1
    29    16    27   1
@<TRIPOS>SUBSTRUCTURE
     1  MOL      1

