@<TRIPOS>MOLECULE
3ao4_ligand_017
    27    29
SMALL
GAST_HUCK
****
This file was generated by PARSER (from files_GN.cpp)

@<TRIPOS>ATOM
      1 C1          4.8541    1.0890   -7.5957 C.ar        1 MOL      -0.0342
      2 C2          5.8265    1.5839   -6.6879 C.ar        1 MOL      -0.0388
      3 C3          7.1432    1.8116   -7.1774 C.ar        1 MOL      -0.0738
      4 C4          7.4745    1.5667   -8.5262 C.ar        1 MOL      -0.0397
      5 C5          6.4823    1.0867   -9.3949 C.ar        1 MOL       0.1245
      6 C6          5.1987    0.8451   -8.9354 C.ar        1 MOL       0.1240
      7 O7          4.3915    0.3908   -9.9109 O.3         1 MOL      -0.2908
      8 C8          5.3054    0.2767  -11.0184 C.3         1 MOL       0.1873
      9 O9          6.6027    0.8225  -10.7083 O.3         1 MOL      -0.2900
     10 C10         5.4756    1.8407   -5.3311 C.2         1 MOL       0.0041
     11 C11         4.2420    1.6924   -4.6983 C.2         1 MOL      -0.0320
     12 C12         4.4239    2.0789   -3.3812 C.2         1 MOL       0.1510
     13 N13         5.7152    2.4379   -3.2491 N.pl3       1 MOL      -0.1966
     14 N14         6.3241    2.2966   -4.3885 N.2         1 MOL      -0.2405
     15 N15         3.4698    2.0831   -2.4341 N.pl3       1 MOL      -0.3098
     16 C16         6.3517    2.9069   -2.0615 C.3         1 MOL       0.0578
     17 H1          3.8938    0.9035   -7.2991 H           1 MOL       0.0507
     18 H2          7.8775    2.1670   -6.5620 H           1 MOL       0.0503
     19 H3          8.4208    1.7417   -8.8706 H           1 MOL       0.0514
     20 H4          4.8890    0.8021  -11.8807 H           1 MOL       0.0974
     21 H5          5.4171   -0.7787  -11.2812 H           1 MOL       0.0974
     22 H6          3.3648    1.3663   -5.1067 H           1 MOL       0.0169
     23 H7          2.5682    1.7998   -2.6521 H           1 MOL       0.1782
     24 H8          3.6815    2.3687   -1.5311 H           1 MOL       0.1782
     25 H9          7.4126    3.0988   -2.2342 H           1 MOL       0.0589
     26 H10         6.2608    2.1599   -1.2715 H           1 MOL       0.0589
     27 H11         5.8827    3.8346   -1.7301 H           1 MOL       0.0589
@<TRIPOS>BOND
     1     1     2  ar
     2     1     6  ar
     3     2     3  ar
     4     2    10   1
     5     3     4  ar
     6     4     5  ar
     7     5     6  ar
     8     5     9   1
     9     6     7   1
    10     7     8   1
    11     8     9   1
    12    10    11   1
    13    10    14   2
    14    11    12   2
    15    12    13   1
    16    12    15   1
    17    13    14   1
    18    13    16   1
    19     1    17   1
    20     3    18   1
    21     4    19   1
    22     8    20   1
    23     8    21   1
    24    11    22   1
    25    15    23   1
    26    15    24   1
    27    16    25   1
    28    16    26   1
    29    16    27   1
@<TRIPOS>SUBSTRUCTURE
     1  MOL      1

