@<TRIPOS>MOLECULE
3ao4_ligand_029
    27    29
SMALL
GAST_HUCK
****
This file was generated by PARSER (from files_GN.cpp)

@<TRIPOS>ATOM
      1 C1         -0.1078    9.2609  -17.1047 C.ar        1 MOL      -0.0342
      2 C2         -0.4594    9.1904  -15.7298 C.ar        1 MOL      -0.0388
      3 C3          0.2739    8.2991  -14.8981 C.ar        1 MOL      -0.0738
      4 C4          1.3233    7.5118  -15.4136 C.ar        1 MOL      -0.0397
      5 C5          1.6442    7.6128  -16.7757 C.ar        1 MOL       0.1245
      6 C6          0.9401    8.4694  -17.6056 C.ar        1 MOL       0.1240
      7 O7          1.4024    8.4336  -18.8698 O.3         1 MOL      -0.2908
      8 C8          2.3659    7.3623  -18.7977 C.3         1 MOL       0.1873
      9 O9          2.6178    6.9592  -17.4363 O.3         1 MOL      -0.2900
     10 C10        -1.5080    9.9867  -15.1816 C.2         1 MOL       0.0041
     11 C11        -2.3313   10.9126  -15.8192 C.2         1 MOL      -0.0320
     12 C12        -3.1817   11.4194  -14.8515 C.2         1 MOL       0.1510
     13 N13        -2.8642   10.8170  -13.6881 N.pl3       1 MOL      -0.1966
     14 N14        -1.8882    9.9815  -13.8864 N.2         1 MOL      -0.2405
     15 N15        -4.1325   12.3453  -15.0652 N.pl3       1 MOL      -0.3098
     16 C16        -3.4776   11.0376  -12.4173 C.3         1 MOL       0.0578
     17 H1         -0.5959    9.8822  -17.7505 H           1 MOL       0.0507
     18 H2          0.0578    8.2165  -13.9019 H           1 MOL       0.0503
     19 H3          1.8476    6.8791  -14.8057 H           1 MOL       0.0514
     20 H4          3.3030    7.6896  -19.2578 H           1 MOL       0.0974
     21 H5          1.9902    6.5056  -19.3612 H           1 MOL       0.0974
     22 H6         -2.3265   11.1794  -16.8039 H           1 MOL       0.0169
     23 H7         -4.2626   12.7300  -15.9462 H           1 MOL       0.1782
     24 H8         -4.6869   12.6452  -14.3304 H           1 MOL       0.1782
     25 H9         -3.0084   10.4304  -11.6395 H           1 MOL       0.0589
     26 H10        -4.5343   10.7796  -12.4645 H           1 MOL       0.0589
     27 H11        -3.3803   12.0906  -12.1367 H           1 MOL       0.0589
@<TRIPOS>BOND
     1     1     2  ar
     2     1     6  ar
     3     2     3  ar
     4     2    10   1
     5     3     4  ar
     6     4     5  ar
     7     5     6  ar
     8     5     9   1
     9     6     7   1
    10     7     8   1
    11     8     9   1
    12    10    11   1
    13    10    14   2
    14    11    12   2
    15    12    13   1
    16    12    15   1
    17    13    14   1
    18    13    16   1
    19     1    17   1
    20     3    18   1
    21     4    19   1
    22     8    20   1
    23     8    21   1
    24    11    22   1
    25    15    23   1
    26    15    24   1
    27    16    25   1
    28    16    26   1
    29    16    27   1
@<TRIPOS>SUBSTRUCTURE
     1  MOL      1

