@<TRIPOS>MOLECULE
3ao4_ligand_012
    27    29
SMALL
GAST_HUCK
****
This file was generated by PARSER (from files_GN.cpp)

@<TRIPOS>ATOM
      1 C1         -0.0532   15.6135  -12.5777 C.ar        1 MOL      -0.0342
      2 C2         -0.9384   15.5426  -13.6861 C.ar        1 MOL      -0.0388
      3 C3         -1.0125   16.6651  -14.5548 C.ar        1 MOL      -0.0738
      4 C4         -0.2256   17.8134  -14.3359 C.ar        1 MOL      -0.0397
      5 C5          0.6453   17.8428  -13.2347 C.ar        1 MOL       0.1245
      6 C6          0.7235   16.7655  -12.3684 C.ar        1 MOL       0.1240
      7 O7          1.6094   16.9791  -11.3794 O.3         1 MOL      -0.2908
      8 C8          2.0230   18.3335  -11.6419 C.3         1 MOL       0.1873
      9 O9          1.4854   18.8324  -12.8820 O.3         1 MOL      -0.2900
     10 C10        -1.7175   14.3682  -13.9018 C.2         1 MOL       0.0041
     11 C11        -2.6470   14.0992  -14.9034 C.2         1 MOL      -0.0320
     12 C12        -3.1292   12.8224  -14.6648 C.2         1 MOL       0.1510
     13 N13        -2.5018   12.3626  -13.5656 N.pl3       1 MOL      -0.1966
     14 N14        -1.6791   13.2670  -13.1247 N.2         1 MOL      -0.2405
     15 N15        -4.0488   12.1877  -15.4110 N.pl3       1 MOL      -0.3098
     16 C16        -2.6862   11.0888  -12.9495 C.3         1 MOL       0.0578
     17 H1          0.0403   14.8376  -11.9197 H           1 MOL       0.0507
     18 H2         -1.6358   16.6610  -15.3650 H           1 MOL       0.0503
     19 H3         -0.2801   18.6128  -14.9708 H           1 MOL       0.0514
     20 H4          3.1136   18.3729  -11.6789 H           1 MOL       0.0974
     21 H5          1.6842   18.9745  -10.8239 H           1 MOL       0.0974
     22 H6         -2.9322   14.7090  -15.6704 H           1 MOL       0.0169
     23 H7         -4.4322   12.6290  -16.1849 H           1 MOL       0.1782
     24 H8         -4.3315   11.2906  -15.1745 H           1 MOL       0.1782
     25 H9         -2.0275   10.9711  -12.0863 H           1 MOL       0.0589
     26 H10        -2.4633   10.2950  -13.6646 H           1 MOL       0.0589
     27 H11        -3.7194   10.9857  -12.6125 H           1 MOL       0.0589
@<TRIPOS>BOND
     1     1     2  ar
     2     1     6  ar
     3     2     3  ar
     4     2    10   1
     5     3     4  ar
     6     4     5  ar
     7     5     6  ar
     8     5     9   1
     9     6     7   1
    10     7     8   1
    11     8     9   1
    12    10    11   1
    13    10    14   2
    14    11    12   2
    15    12    13   1
    16    12    15   1
    17    13    14   1
    18    13    16   1
    19     1    17   1
    20     3    18   1
    21     4    19   1
    22     8    20   1
    23     8    21   1
    24    11    22   1
    25    15    23   1
    26    15    24   1
    27    16    25   1
    28    16    26   1
    29    16    27   1
@<TRIPOS>SUBSTRUCTURE
     1  MOL      1

