@<TRIPOS>MOLECULE
3ao4_ligand_008
    27    29
SMALL
GAST_HUCK
****
This file was generated by PARSER (from files_GN.cpp)

@<TRIPOS>ATOM
      1 C1          0.4209    9.3843   -7.3277 C.ar        1 MOL      -0.0342
      2 C2         -0.3290   10.4274   -7.9368 C.ar        1 MOL      -0.0388
      3 C3         -0.3477   10.4914   -9.3564 C.ar        1 MOL      -0.0738
      4 C4          0.3427    9.5469  -10.1419 C.ar        1 MOL      -0.0397
      5 C5          1.0678    8.5295   -9.5048 C.ar        1 MOL       0.1245
      6 C6          1.1049    8.4494   -8.1212 C.ar        1 MOL       0.1240
      7 O7          1.8318    7.3967   -7.7039 O.3         1 MOL      -0.2908
      8 C8          2.3535    6.8852   -8.9435 C.3         1 MOL       0.1873
      9 O9          1.7740    7.5428  -10.0853 O.3         1 MOL      -0.2900
     10 C10        -1.0368   11.3673   -7.1333 C.2         1 MOL       0.0041
     11 C11        -1.8194   12.4524   -7.5235 C.2         1 MOL      -0.0320
     12 C12        -2.2708   13.0565   -6.3615 C.2         1 MOL       0.1510
     13 N13        -1.7842   12.3412   -5.3295 N.pl3       1 MOL      -0.1966
     14 N14        -1.0656   11.3605   -5.7856 N.2         1 MOL      -0.2405
     15 N15        -3.0491   14.1551   -6.2971 N.pl3       1 MOL      -0.3098
     16 C16        -2.0082   12.5777   -3.9442 C.3         1 MOL       0.0578
     17 H1          0.4755    9.2905   -6.3092 H           1 MOL       0.0507
     18 H2         -0.8713   11.2228   -9.8406 H           1 MOL       0.0503
     19 H3          0.3131    9.5967  -11.1639 H           1 MOL       0.0514
     20 H4          2.1499    5.8148   -9.0061 H           1 MOL       0.0974
     21 H5          3.4362    7.0295   -8.9593 H           1 MOL       0.0974
     22 H6         -2.0262   12.7585   -8.4774 H           1 MOL       0.0169
     23 H7         -3.3557   14.5947   -7.1098 H           1 MOL       0.1782
     24 H8         -3.3016   14.5176   -5.4349 H           1 MOL       0.1782
     25 H9         -1.5127   11.8220   -3.3307 H           1 MOL       0.0589
     26 H10        -3.0750   12.5447   -3.7307 H           1 MOL       0.0589
     27 H11        -1.6171   13.5581   -3.6637 H           1 MOL       0.0589
@<TRIPOS>BOND
     1     1     2  ar
     2     1     6  ar
     3     2     3  ar
     4     2    10   1
     5     3     4  ar
     6     4     5  ar
     7     5     6  ar
     8     5     9   1
     9     6     7   1
    10     7     8   1
    11     8     9   1
    12    10    11   1
    13    10    14   2
    14    11    12   2
    15    12    13   1
    16    12    15   1
    17    13    14   1
    18    13    16   1
    19     1    17   1
    20     3    18   1
    21     4    19   1
    22     8    20   1
    23     8    21   1
    24    11    22   1
    25    15    23   1
    26    15    24   1
    27    16    25   1
    28    16    26   1
    29    16    27   1
@<TRIPOS>SUBSTRUCTURE
     1  MOL      1

