@<TRIPOS>MOLECULE
3ao4_ligand_000
    27    29
SMALL
GAST_HUCK
****
This file was generated by PARSER (from files_GN.cpp)

@<TRIPOS>ATOM
      1 C1          0.1579    8.6731  -10.5816 C.ar        1 MOL      -0.0342
      2 C2          0.2064    7.5286   -9.7413 C.ar        1 MOL      -0.0388
      3 C3          1.4781    7.0702   -9.3016 C.ar        1 MOL      -0.0738
      4 C4          2.6604    7.7311   -9.6801 C.ar        1 MOL      -0.0397
      5 C5          2.5758    8.8557  -10.5170 C.ar        1 MOL       0.1245
      6 C6          1.3462    9.3189  -10.9581 C.ar        1 MOL       0.1240
      7 O7          1.4673   10.4121  -11.7322 O.3         1 MOL      -0.2908
      8 C8          2.8987   10.5411  -11.8325 C.3         1 MOL       0.1873
      9 O9          3.5876    9.6222  -10.9623 O.3         1 MOL      -0.2900
     10 C10        -0.9949    6.8803   -9.3546 C.2         1 MOL       0.0041
     11 C11        -1.1631    5.7475   -8.5613 C.2         1 MOL      -0.0320
     12 C12        -2.5260    5.5221   -8.4828 C.2         1 MOL       0.1510
     13 N13        -3.1303    6.4875   -9.2030 N.pl3       1 MOL      -0.1966
     14 N14        -2.2341    7.2774   -9.7090 N.2         1 MOL      -0.2405
     15 N15        -3.0848    4.5159   -7.7926 N.pl3       1 MOL      -0.3098
     16 C16        -4.5316    6.6554   -9.4081 C.3         1 MOL       0.0578
     17 H1         -0.7297    9.0479  -10.9234 H           1 MOL       0.0507
     18 H2          1.5628    6.2511   -8.6977 H           1 MOL       0.0503
     19 H3          3.5702    7.4001   -9.3479 H           1 MOL       0.0514
     20 H4          3.1856   11.5609  -11.5710 H           1 MOL       0.0974
     21 H5          3.2012   10.3518  -12.8665 H           1 MOL       0.0974
     22 H6         -0.4396    5.1776   -8.1179 H           1 MOL       0.0169
     23 H7         -2.5160    3.9134   -7.2881 H           1 MOL       0.1782
     24 H8         -4.0468    4.4144   -7.7693 H           1 MOL       0.1782
     25 H9         -4.7367    7.5334  -10.0246 H           1 MOL       0.0589
     26 H10        -5.0353    6.7747   -8.4469 H           1 MOL       0.0589
     27 H11        -4.9327    5.7823   -9.9183 H           1 MOL       0.0589
@<TRIPOS>BOND
     1     1     2  ar
     2     1     6  ar
     3     2     3  ar
     4     2    10   1
     5     3     4  ar
     6     4     5  ar
     7     5     6  ar
     8     5     9   1
     9     6     7   1
    10     7     8   1
    11     8     9   1
    12    10    11   1
    13    10    14   2
    14    11    12   2
    15    12    13   1
    16    12    15   1
    17    13    14   1
    18    13    16   1
    19     1    17   1
    20     3    18   1
    21     4    19   1
    22     8    20   1
    23     8    21   1
    24    11    22   1
    25    15    23   1
    26    15    24   1
    27    16    25   1
    28    16    26   1
    29    16    27   1
@<TRIPOS>SUBSTRUCTURE
     1  MOL      1

