@<TRIPOS>MOLECULE
3ao4_ligand_009
    27    29
SMALL
GAST_HUCK
****
This file was generated by PARSER (from files_GN.cpp)

@<TRIPOS>ATOM
      1 C1         -0.7591    8.8669   -6.9569 C.ar        1 MOL      -0.0342
      2 C2         -0.9215    9.3459   -5.6296 C.ar        1 MOL      -0.0388
      3 C3         -0.5930    8.4705   -4.5577 C.ar        1 MOL      -0.0738
      4 C4         -0.1107    7.1678   -4.7987 C.ar        1 MOL      -0.0397
      5 C5          0.0354    6.7304   -6.1244 C.ar        1 MOL       0.1245
      6 C6         -0.2884    7.5629   -7.1823 C.ar        1 MOL       0.1240
      7 O7         -0.0787    6.9699   -8.3715 O.3         1 MOL      -0.2908
      8 C8          0.3201    5.6464   -7.9715 C.3         1 MOL       0.1873
      9 O9          0.4959    5.5387   -6.5453 O.3         1 MOL      -0.2900
     10 C10        -1.3986   10.6694   -5.4040 C.2         1 MOL       0.0041
     11 C11        -1.6336   11.3267   -4.1986 C.2         1 MOL      -0.0320
     12 C12        -2.0833   12.5964   -4.5220 C.2         1 MOL       0.1510
     13 N13        -2.1146   12.6770   -5.8647 N.pl3       1 MOL      -0.1966
     14 N14        -1.7144   11.5507   -6.3756 N.2         1 MOL      -0.2405
     15 N15        -2.4181   13.5490   -3.6361 N.pl3       1 MOL      -0.3098
     16 C16        -2.5160   13.8059   -6.6367 C.3         1 MOL       0.0578
     17 H1         -0.9779    9.4522   -7.7666 H           1 MOL       0.0507
     18 H2         -0.6989    8.7666   -3.5866 H           1 MOL       0.0503
     19 H3          0.1281    6.5482   -4.0222 H           1 MOL       0.0514
     20 H4          1.2611    5.3988   -8.4665 H           1 MOL       0.0974
     21 H5         -0.4393    4.9286   -8.2942 H           1 MOL       0.0974
     22 H6         -1.5067   10.9655   -3.2523 H           1 MOL       0.0169
     23 H7         -2.3618   13.3638   -2.6863 H           1 MOL       0.1782
     24 H8         -2.7240   14.4165   -3.9441 H           1 MOL       0.1782
     25 H9         -2.4251   13.5978   -7.7045 H           1 MOL       0.0589
     26 H10        -1.8895   14.6646   -6.3935 H           1 MOL       0.0589
     27 H11        -3.5542   14.0559   -6.4159 H           1 MOL       0.0589
@<TRIPOS>BOND
     1     1     2  ar
     2     1     6  ar
     3     2     3  ar
     4     2    10   1
     5     3     4  ar
     6     4     5  ar
     7     5     6  ar
     8     5     9   1
     9     6     7   1
    10     7     8   1
    11     8     9   1
    12    10    11   1
    13    10    14   2
    14    11    12   2
    15    12    13   1
    16    12    15   1
    17    13    14   1
    18    13    16   1
    19     1    17   1
    20     3    18   1
    21     4    19   1
    22     8    20   1
    23     8    21   1
    24    11    22   1
    25    15    23   1
    26    15    24   1
    27    16    25   1
    28    16    26   1
    29    16    27   1
@<TRIPOS>SUBSTRUCTURE
     1  MOL      1

