@<TRIPOS>MOLECULE
3ao4_ligand_006
    27    29
SMALL
GAST_HUCK
****
This file was generated by PARSER (from files_GN.cpp)

@<TRIPOS>ATOM
      1 C1          2.5149    5.9394   -6.7332 C.ar        1 MOL      -0.0342
      2 C2          1.6992    5.5882   -5.6244 C.ar        1 MOL      -0.0388
      3 C3          0.3616    6.0698   -5.6005 C.ar        1 MOL      -0.0738
      4 C4         -0.1501    6.8618   -6.6488 C.ar        1 MOL      -0.0397
      5 C5          0.6836    7.1796   -7.7320 C.ar        1 MOL       0.1245
      6 C6          1.9938    6.7331   -7.7688 C.ar        1 MOL       0.1240
      7 O7          2.6326    7.1366   -8.8817 O.3         1 MOL      -0.2908
      8 C8          1.6335    7.9622   -9.5102 C.3         1 MOL       0.1873
      9 O9          0.3666    7.8943   -8.8264 O.3         1 MOL      -0.2900
     10 C10         2.2267    4.7753   -4.5800 C.2         1 MOL       0.0041
     11 C11         1.6121    4.3342   -3.4100 C.2         1 MOL      -0.0320
     12 C12         2.5527    3.5794   -2.7290 C.2         1 MOL       0.1510
     13 N13         3.6744    3.5783   -3.4744 N.pl3       1 MOL      -0.1966
     14 N14         3.4795    4.2763   -4.5528 N.2         1 MOL      -0.2405
     15 N15         2.3530    2.9721   -1.5465 N.pl3       1 MOL      -0.3098
     16 C16         4.9046    2.9269   -3.1617 C.3         1 MOL       0.0578
     17 H1          3.4854    5.6246   -6.8021 H           1 MOL       0.0507
     18 H2         -0.2629    5.8439   -4.8243 H           1 MOL       0.0503
     19 H3         -1.1160    7.1956   -6.6263 H           1 MOL       0.0514
     20 H4          1.5030    7.6394  -10.5456 H           1 MOL       0.0974
     21 H5          1.9798    8.9993   -9.5156 H           1 MOL       0.0974
     22 H6          0.6586    4.5201   -3.0965 H           1 MOL       0.0169
     23 H7          1.4943    3.0461   -1.1018 H           1 MOL       0.1782
     24 H8          3.0670    2.4599   -1.1350 H           1 MOL       0.1782
     25 H9          5.6381    3.0701   -3.9579 H           1 MOL       0.0589
     26 H10         4.7364    1.8562   -3.0362 H           1 MOL       0.0589
     27 H11         5.3159    3.3335   -2.2363 H           1 MOL       0.0589
@<TRIPOS>BOND
     1     1     2  ar
     2     1     6  ar
     3     2     3  ar
     4     2    10   1
     5     3     4  ar
     6     4     5  ar
     7     5     6  ar
     8     5     9   1
     9     6     7   1
    10     7     8   1
    11     8     9   1
    12    10    11   1
    13    10    14   2
    14    11    12   2
    15    12    13   1
    16    12    15   1
    17    13    14   1
    18    13    16   1
    19     1    17   1
    20     3    18   1
    21     4    19   1
    22     8    20   1
    23     8    21   1
    24    11    22   1
    25    15    23   1
    26    15    24   1
    27    16    25   1
    28    16    26   1
    29    16    27   1
@<TRIPOS>SUBSTRUCTURE
     1  MOL      1

