@<TRIPOS>MOLECULE
3ao4_ligand_033
    27    29
SMALL
GAST_HUCK
****
This file was generated by PARSER (from files_GN.cpp)

@<TRIPOS>ATOM
      1 C1          4.2528    2.2228   -7.7412 C.ar        1 MOL      -0.0342
      2 C2          3.7747    1.2566   -6.8159 C.ar        1 MOL      -0.0388
      3 C3          3.2263    0.0511   -7.3324 C.ar        1 MOL      -0.0738
      4 C4          3.1634   -0.1887   -8.7201 C.ar        1 MOL      -0.0397
      5 C5          3.6505    0.7871   -9.6032 C.ar        1 MOL       0.1245
      6 C6          4.1791    1.9736   -9.1221 C.ar        1 MOL       0.1240
      7 O7          4.5955    2.7784  -10.1157 O.3         1 MOL      -0.2908
      8 C8          4.1985    2.0338  -11.2829 C.3         1 MOL       0.1873
      9 O9          3.6980    0.7255  -10.9459 O.3         1 MOL      -0.2900
     10 C10         3.8579    1.5085   -5.4156 C.2         1 MOL       0.0041
     11 C11         3.4421    0.7123   -4.3507 C.2         1 MOL      -0.0320
     12 C12         3.7420    1.4112   -3.1931 C.2         1 MOL       0.1510
     13 N13         4.3165    2.5704   -3.5680 N.pl3       1 MOL      -0.1966
     14 N14         4.3823    2.6224   -4.8644 N.2         1 MOL      -0.2405
     15 N15         3.4952    0.9845   -1.9426 N.pl3       1 MOL      -0.3098
     16 C16         4.7886    3.6049   -2.7063 C.3         1 MOL       0.0578
     17 H1          4.6539    3.1095   -7.4278 H           1 MOL       0.0507
     18 H2          2.8705   -0.6736   -6.7060 H           1 MOL       0.0503
     19 H3          2.7730   -1.0620   -9.0814 H           1 MOL       0.0514
     20 H4          5.0569    1.9316  -11.9500 H           1 MOL       0.0974
     21 H5          3.4178    2.5875  -11.8106 H           1 MOL       0.0974
     22 H6          2.9963   -0.2057   -4.3932 H           1 MOL       0.0169
     23 H7          3.0736    0.1227   -1.7973 H           1 MOL       0.1782
     24 H8          3.7404    1.5365   -1.1837 H           1 MOL       0.1782
     25 H9          5.2319    4.4208   -3.2804 H           1 MOL       0.0589
     26 H10         5.5460    3.2077   -2.0287 H           1 MOL       0.0589
     27 H11         3.9599    4.0055   -2.1208 H           1 MOL       0.0589
@<TRIPOS>BOND
     1     1     2  ar
     2     1     6  ar
     3     2     3  ar
     4     2    10   1
     5     3     4  ar
     6     4     5  ar
     7     5     6  ar
     8     5     9   1
     9     6     7   1
    10     7     8   1
    11     8     9   1
    12    10    11   1
    13    10    14   2
    14    11    12   2
    15    12    13   1
    16    12    15   1
    17    13    14   1
    18    13    16   1
    19     1    17   1
    20     3    18   1
    21     4    19   1
    22     8    20   1
    23     8    21   1
    24    11    22   1
    25    15    23   1
    26    15    24   1
    27    16    25   1
    28    16    26   1
    29    16    27   1
@<TRIPOS>SUBSTRUCTURE
     1  MOL      1

