@<TRIPOS>MOLECULE
3ao4_ligand_039
    27    29
SMALL
GAST_HUCK
****
This file was generated by PARSER (from files_GN.cpp)

@<TRIPOS>ATOM
      1 C1         -0.7444    6.1503   -7.1593 C.ar        1 MOL      -0.0342
      2 C2          0.6169    5.9274   -7.4863 C.ar        1 MOL      -0.0388
      3 C3          0.9711    5.8602   -8.8639 C.ar        1 MOL      -0.0738
      4 C4          0.0039    6.0068   -9.8776 C.ar        1 MOL      -0.0397
      5 C5         -1.3346    6.2244   -9.5142 C.ar        1 MOL       0.1245
      6 C6         -1.6996    6.2960   -8.1801 C.ar        1 MOL       0.1240
      7 O7         -3.0208    6.5066   -8.0286 O.3         1 MOL      -0.2908
      8 C8         -3.4830    6.4884   -9.3910 C.3         1 MOL       0.1873
      9 O9         -2.3977    6.3619  -10.3298 O.3         1 MOL      -0.2900
     10 C10         1.6101    5.7786   -6.4768 C.2         1 MOL       0.0041
     11 C11         1.4547    5.8236   -5.0925 C.2         1 MOL      -0.0320
     12 C12         2.7101    5.6172   -4.5501 C.2         1 MOL       0.1510
     13 N13         3.5659    5.4504   -5.5779 N.pl3       1 MOL      -0.1966
     14 N14         2.9190    5.5383   -6.7026 N.2         1 MOL      -0.2405
     15 N15         2.9868    5.6021   -3.2348 N.pl3       1 MOL      -0.3098
     16 C16         4.9675    5.2192   -5.4729 C.3         1 MOL       0.0578
     17 H1         -1.0531    6.2004   -6.1898 H           1 MOL       0.0507
     18 H2          1.9392    5.6920   -9.1496 H           1 MOL       0.0503
     19 H3          0.2702    5.9556  -10.8638 H           1 MOL       0.0514
     20 H4         -4.0340    7.4078   -9.5963 H           1 MOL       0.0974
     21 H5         -4.1651    5.6468   -9.5209 H           1 MOL       0.0974
     22 H6          0.5953    5.9887   -4.5628 H           1 MOL       0.0169
     23 H7          2.2733    5.7530   -2.5946 H           1 MOL       0.1782
     24 H8          3.8950    5.4560   -2.9254 H           1 MOL       0.1782
     25 H9          5.4246    5.0932   -6.4565 H           1 MOL       0.0589
     26 H10         5.1591    4.3191   -4.8843 H           1 MOL       0.0589
     27 H11         5.4367    6.0718   -4.9805 H           1 MOL       0.0589
@<TRIPOS>BOND
     1     1     2  ar
     2     1     6  ar
     3     2     3  ar
     4     2    10   1
     5     3     4  ar
     6     4     5  ar
     7     5     6  ar
     8     5     9   1
     9     6     7   1
    10     7     8   1
    11     8     9   1
    12    10    11   1
    13    10    14   2
    14    11    12   2
    15    12    13   1
    16    12    15   1
    17    13    14   1
    18    13    16   1
    19     1    17   1
    20     3    18   1
    21     4    19   1
    22     8    20   1
    23     8    21   1
    24    11    22   1
    25    15    23   1
    26    15    24   1
    27    16    25   1
    28    16    26   1
    29    16    27   1
@<TRIPOS>SUBSTRUCTURE
     1  MOL      1

