@<TRIPOS>MOLECULE
3ao4_ligand_040
    27    29
SMALL
GAST_HUCK
****
This file was generated by PARSER (from files_GN.cpp)

@<TRIPOS>ATOM
      1 C1          4.8216    5.2997   -8.1980 C.ar        1 MOL      -0.0342
      2 C2          3.4754    5.5113   -7.7945 C.ar        1 MOL      -0.0388
      3 C3          2.4983    5.7215   -8.8077 C.ar        1 MOL      -0.0738
      4 C4          2.8505    5.7283  -10.1739 C.ar        1 MOL      -0.0397
      5 C5          4.1927    5.5289  -10.5330 C.ar        1 MOL       0.1245
      6 C6          5.1586    5.3167   -9.5626 C.ar        1 MOL       0.1240
      7 O7          6.3759    5.1350  -10.1029 O.3         1 MOL      -0.2908
      8 C8          6.1199    5.3831  -11.4988 C.3         1 MOL       0.1873
      9 O9          4.7101    5.4969  -11.7759 O.3         1 MOL      -0.2900
     10 C10         3.0933    5.5216   -6.4222 C.2         1 MOL       0.0041
     11 C11         3.8835    5.3439   -5.2874 C.2         1 MOL      -0.0320
     12 C12         3.0336    5.4264   -4.1960 C.2         1 MOL       0.1510
     13 N13         1.7956    5.6511   -4.6730 N.pl3       1 MOL      -0.1966
     14 N14         1.8340    5.7094   -5.9717 N.2         1 MOL      -0.2405
     15 N15         3.4088    5.2908   -2.9133 N.pl3       1 MOL      -0.3098
     16 C16         0.6010    5.7878   -3.9047 C.3         1 MOL       0.0578
     17 H1          5.5704    5.1405   -7.5240 H           1 MOL       0.0507
     18 H2          1.5165    5.8676   -8.5604 H           1 MOL       0.0503
     19 H3          2.1396    5.8741  -10.8940 H           1 MOL       0.0514
     20 H4          6.5404    4.5657  -12.0886 H           1 MOL       0.0974
     21 H5          6.6202    6.3107  -11.7900 H           1 MOL       0.0974
     22 H6          4.8899    5.1764   -5.2445 H           1 MOL       0.0169
     23 H7          4.3391    5.1238   -2.6907 H           1 MOL       0.1782
     24 H8          2.7443    5.3553   -2.2101 H           1 MOL       0.1782
     25 H9         -0.2615    5.9661   -4.5496 H           1 MOL       0.0589
     26 H10         0.6989    6.6275   -3.2137 H           1 MOL       0.0589
     27 H11         0.4235    4.8740   -3.3341 H           1 MOL       0.0589
@<TRIPOS>BOND
     1     1     2  ar
     2     1     6  ar
     3     2     3  ar
     4     2    10   1
     5     3     4  ar
     6     4     5  ar
     7     5     6  ar
     8     5     9   1
     9     6     7   1
    10     7     8   1
    11     8     9   1
    12    10    11   1
    13    10    14   2
    14    11    12   2
    15    12    13   1
    16    12    15   1
    17    13    14   1
    18    13    16   1
    19     1    17   1
    20     3    18   1
    21     4    19   1
    22     8    20   1
    23     8    21   1
    24    11    22   1
    25    15    23   1
    26    15    24   1
    27    16    25   1
    28    16    26   1
    29    16    27   1
@<TRIPOS>SUBSTRUCTURE
     1  MOL      1

