@<TRIPOS>MOLECULE
3ao4_ligand_026
    27    29
SMALL
GAST_HUCK
****
This file was generated by PARSER (from files_GN.cpp)

@<TRIPOS>ATOM
      1 C1          7.5631   15.3981  -11.5946 C.ar        1 MOL      -0.0342
      2 C2          7.9148   16.7368  -11.2704 C.ar        1 MOL      -0.0388
      3 C3          9.2663   17.1354  -11.4680 C.ar        1 MOL      -0.0738
      4 C4         10.2314   16.2398  -11.9753 C.ar        1 MOL      -0.0397
      5 C5          9.8418   14.9291  -12.2858 C.ar        1 MOL       0.1245
      6 C6          8.5340   14.5157  -12.0970 C.ar        1 MOL       0.1240
      7 O7          8.3576   13.2326  -12.4649 O.3         1 MOL      -0.2908
      8 C8          9.6986   12.8386  -12.8106 C.3         1 MOL       0.1873
      9 O9         10.6146   13.9501  -12.7905 O.3         1 MOL      -0.2900
     10 C10         6.9558   17.6562  -10.7513 C.2         1 MOL       0.0041
     11 C11         5.5985   17.4597  -10.5037 C.2         1 MOL      -0.0320
     12 C12         5.1104   18.6529   -9.9979 C.2         1 MOL       0.1510
     13 N13         6.1445   19.5138   -9.9511 N.pl3       1 MOL      -0.1966
     14 N14         7.2189   18.9286  -10.3884 N.2         1 MOL      -0.2405
     15 N15         3.8369   18.8806   -9.6287 N.pl3       1 MOL      -0.3098
     16 C16         6.0969   20.8660   -9.5052 C.3         1 MOL       0.0578
     17 H1          6.6116   15.0469  -11.4725 H           1 MOL       0.0507
     18 H2          9.5646   18.0883  -11.2453 H           1 MOL       0.0503
     19 H3         11.1969   16.5377  -12.1176 H           1 MOL       0.0514
     20 H4          9.6945   12.3953  -13.8086 H           1 MOL       0.0974
     21 H5         10.0410   12.0830  -12.0990 H           1 MOL       0.0974
     22 H6          5.0516   16.6106  -10.6534 H           1 MOL       0.0169
     23 H7          3.1734   18.1797   -9.7159 H           1 MOL       0.1782
     24 H8          3.5786   19.7443   -9.2698 H           1 MOL       0.1782
     25 H9          7.0800   21.3344   -9.5820 H           1 MOL       0.0589
     26 H10         5.7723   20.9036   -8.4636 H           1 MOL       0.0589
     27 H11         5.3941   21.4343  -10.1183 H           1 MOL       0.0589
@<TRIPOS>BOND
     1     1     2  ar
     2     1     6  ar
     3     2     3  ar
     4     2    10   1
     5     3     4  ar
     6     4     5  ar
     7     5     6  ar
     8     5     9   1
     9     6     7   1
    10     7     8   1
    11     8     9   1
    12    10    11   1
    13    10    14   2
    14    11    12   2
    15    12    13   1
    16    12    15   1
    17    13    14   1
    18    13    16   1
    19     1    17   1
    20     3    18   1
    21     4    19   1
    22     8    20   1
    23     8    21   1
    24    11    22   1
    25    15    23   1
    26    15    24   1
    27    16    25   1
    28    16    26   1
    29    16    27   1
@<TRIPOS>SUBSTRUCTURE
     1  MOL      1

