@<TRIPOS>MOLECULE
3ao4_ligand_030
    27    29
SMALL
GAST_HUCK
****
This file was generated by PARSER (from files_GN.cpp)

@<TRIPOS>ATOM
      1 C1         -1.6475   12.0790   -9.9075 C.ar        1 MOL      -0.0342
      2 C2         -1.1937   11.1129  -10.8474 C.ar        1 MOL      -0.0388
      3 C3         -0.1084   10.2762  -10.4747 C.ar        1 MOL      -0.0738
      4 C4          0.4971   10.3848   -9.2036 C.ar        1 MOL      -0.0397
      5 C5          0.0153   11.3471   -8.3001 C.ar        1 MOL       0.1245
      6 C6         -1.0338   12.1765   -8.6516 C.ar        1 MOL       0.1240
      7 O7         -1.3857   12.9957   -7.6480 O.3         1 MOL      -0.2908
      8 C8         -0.3719   12.7110   -6.6686 C.3         1 MOL       0.1873
      9 O9          0.4411   11.5816   -7.0446 O.3         1 MOL      -0.2900
     10 C10        -1.8002   10.9654  -12.1293 C.2         1 MOL       0.0041
     11 C11        -2.8767   11.6680  -12.6630 C.2         1 MOL      -0.0320
     12 C12        -3.0798   11.1802  -13.9414 C.2         1 MOL       0.1510
     13 N13        -2.1636   10.2152  -14.1459 N.pl3       1 MOL      -0.1966
     14 N14        -1.4182   10.0905  -13.0861 N.2         1 MOL      -0.2405
     15 N15        -4.0433   11.6106  -14.7717 N.pl3       1 MOL      -0.3098
     16 C16        -2.0244    9.4274  -15.3262 C.3         1 MOL       0.0578
     17 H1         -2.4310   12.6999  -10.1079 H           1 MOL       0.0507
     18 H2          0.2547    9.5707  -11.1219 H           1 MOL       0.0503
     19 H3          1.2747    9.7723   -8.9405 H           1 MOL       0.0514
     20 H4         -0.8540   12.5077   -5.7106 H           1 MOL       0.0974
     21 H5          0.2657   13.5921   -6.5550 H           1 MOL       0.0974
     22 H6         -3.4205   12.4053  -12.2172 H           1 MOL       0.0169
     23 H7         -4.6832   12.2625  -14.4500 H           1 MOL       0.1782
     24 H8         -4.1503   11.2128  -15.6490 H           1 MOL       0.1782
     25 H9         -1.1850    8.7334  -15.2377 H           1 MOL       0.0589
     26 H10        -1.8488   10.0788  -16.1843 H           1 MOL       0.0589
     27 H11        -2.9360    8.8501  -15.4980 H           1 MOL       0.0589
@<TRIPOS>BOND
     1     1     2  ar
     2     1     6  ar
     3     2     3  ar
     4     2    10   1
     5     3     4  ar
     6     4     5  ar
     7     5     6  ar
     8     5     9   1
     9     6     7   1
    10     7     8   1
    11     8     9   1
    12    10    11   1
    13    10    14   2
    14    11    12   2
    15    12    13   1
    16    12    15   1
    17    13    14   1
    18    13    16   1
    19     1    17   1
    20     3    18   1
    21     4    19   1
    22     8    20   1
    23     8    21   1
    24    11    22   1
    25    15    23   1
    26    15    24   1
    27    16    25   1
    28    16    26   1
    29    16    27   1
@<TRIPOS>SUBSTRUCTURE
     1  MOL      1

