@<TRIPOS>MOLECULE
3ao4_ligand_045
    27    29
SMALL
GAST_HUCK
****
This file was generated by PARSER (from files_GN.cpp)

@<TRIPOS>ATOM
      1 C1          3.4750   -1.8715   -6.2290 C.ar        1 MOL      -0.0342
      2 C2          3.4398   -0.4682   -6.0131 C.ar        1 MOL      -0.0388
      3 C3          3.2440    0.3780   -7.1398 C.ar        1 MOL      -0.0738
      4 C4          3.0839   -0.1531   -8.4368 C.ar        1 MOL      -0.0397
      5 C5          3.1252   -1.5464   -8.6093 C.ar        1 MOL       0.1245
      6 C6          3.3190   -2.3857   -7.5256 C.ar        1 MOL       0.1240
      7 O7          3.3180   -3.6811   -7.8951 O.3         1 MOL      -0.2908
      8 C8          3.2169   -3.5818   -9.3281 C.3         1 MOL       0.1873
      9 O9          2.9814   -2.2284   -9.7602 O.3         1 MOL      -0.2900
     10 C10         3.5869    0.0915   -4.7122 C.2         1 MOL       0.0041
     11 C11         3.7542   -0.5594   -3.4894 C.2         1 MOL      -0.0320
     12 C12         3.8365    0.4317   -2.5232 C.2         1 MOL       0.1510
     13 N13         3.7195    1.6155   -3.1573 N.pl3       1 MOL      -0.1966
     14 N14         3.5801    1.4113   -4.4327 N.2         1 MOL      -0.2405
     15 N15         3.9978    0.2156   -1.2080 N.pl3       1 MOL      -0.3098
     16 C16         3.7349    2.9104   -2.5582 C.3         1 MOL       0.0578
     17 H1          3.6126   -2.5233   -5.4577 H           1 MOL       0.0507
     18 H2          3.2094    1.3965   -7.0341 H           1 MOL       0.0503
     19 H3          2.9383    0.4640   -9.2393 H           1 MOL       0.0514
     20 H4          2.3997   -4.2164   -9.6758 H           1 MOL       0.0974
     21 H5          4.1456   -3.9422   -9.7772 H           1 MOL       0.0974
     22 H6          3.8021   -1.5630   -3.3179 H           1 MOL       0.0169
     23 H7          4.0687   -0.6913   -0.8706 H           1 MOL       0.1782
     24 H8          4.0481    0.9650   -0.5959 H           1 MOL       0.1782
     25 H9          3.6035    3.6939   -3.3093 H           1 MOL       0.0589
     26 H10         4.6874    3.0755   -2.0502 H           1 MOL       0.0589
     27 H11         2.9251    2.9937   -1.8304 H           1 MOL       0.0589
@<TRIPOS>BOND
     1     1     2  ar
     2     1     6  ar
     3     2     3  ar
     4     2    10   1
     5     3     4  ar
     6     4     5  ar
     7     5     6  ar
     8     5     9   1
     9     6     7   1
    10     7     8   1
    11     8     9   1
    12    10    11   1
    13    10    14   2
    14    11    12   2
    15    12    13   1
    16    12    15   1
    17    13    14   1
    18    13    16   1
    19     1    17   1
    20     3    18   1
    21     4    19   1
    22     8    20   1
    23     8    21   1
    24    11    22   1
    25    15    23   1
    26    15    24   1
    27    16    25   1
    28    16    26   1
    29    16    27   1
@<TRIPOS>SUBSTRUCTURE
     1  MOL      1

