@<TRIPOS>MOLECULE
3ao4_ligand_014
    27    29
SMALL
GAST_HUCK
****
This file was generated by PARSER (from files_GN.cpp)

@<TRIPOS>ATOM
      1 C1         -0.4575   10.7845  -10.4660 C.ar        1 MOL      -0.0342
      2 C2         -1.5663   10.7138  -11.3497 C.ar        1 MOL      -0.0388
      3 C3         -2.1934    9.4531  -11.5355 C.ar        1 MOL      -0.0738
      4 C4         -1.7300    8.2990  -10.8705 C.ar        1 MOL      -0.0397
      5 C5         -0.6259    8.4067  -10.0091 C.ar        1 MOL       0.1245
      6 C6         -0.0024    9.6272   -9.8107 C.ar        1 MOL       0.1240
      7 O7          1.0251    9.5330   -8.9467 O.3         1 MOL      -0.2908
      8 C8          1.0665    8.1149   -8.6921 C.3         1 MOL       0.1873
      9 O9         -0.0545    7.4260   -9.2816 O.3         1 MOL      -0.2900
     10 C10        -2.0162   11.8864  -12.0206 C.2         1 MOL       0.0041
     11 C11        -3.0742   12.0407  -12.9144 C.2         1 MOL      -0.0320
     12 C12        -3.0838   13.3732  -13.2935 C.2         1 MOL       0.1510
     13 N13        -2.0819   13.9815  -12.6302 N.pl3       1 MOL      -0.1966
     14 N14        -1.4542   13.1074  -11.8976 N.2         1 MOL      -0.2405
     15 N15        -3.9505   13.9384  -14.1552 N.pl3       1 MOL      -0.3098
     16 C16        -1.7424   15.3654  -12.6849 C.3         1 MOL       0.0578
     17 H1          0.0300   11.6648  -10.2860 H           1 MOL       0.0507
     18 H2         -3.0006    9.3552  -12.1511 H           1 MOL       0.0503
     19 H3         -2.1855    7.3946  -11.0082 H           1 MOL       0.0514
     20 H4          1.0677    7.9466   -7.6131 H           1 MOL       0.0974
     21 H5          1.9930    7.7060   -9.1039 H           1 MOL       0.0974
     22 H6         -3.7188   11.3213  -13.2507 H           1 MOL       0.0169
     23 H7         -4.6506   13.3982  -14.5621 H           1 MOL       0.1782
     24 H8         -3.8865   14.8854  -14.3592 H           1 MOL       0.1782
     25 H9         -0.8754   15.5844  -12.0583 H           1 MOL       0.0589
     26 H10        -2.5843   15.9605  -12.3283 H           1 MOL       0.0589
     27 H11        -1.5104   15.6546  -13.7114 H           1 MOL       0.0589
@<TRIPOS>BOND
     1     1     2  ar
     2     1     6  ar
     3     2     3  ar
     4     2    10   1
     5     3     4  ar
     6     4     5  ar
     7     5     6  ar
     8     5     9   1
     9     6     7   1
    10     7     8   1
    11     8     9   1
    12    10    11   1
    13    10    14   2
    14    11    12   2
    15    12    13   1
    16    12    15   1
    17    13    14   1
    18    13    16   1
    19     1    17   1
    20     3    18   1
    21     4    19   1
    22     8    20   1
    23     8    21   1
    24    11    22   1
    25    15    23   1
    26    15    24   1
    27    16    25   1
    28    16    26   1
    29    16    27   1
@<TRIPOS>SUBSTRUCTURE
     1  MOL      1

