@<TRIPOS>MOLECULE
3ao4_ligand_001
    27    29
SMALL
GAST_HUCK
****
This file was generated by PARSER (from files_GN.cpp)

@<TRIPOS>ATOM
      1 C1          2.3155   10.4475  -10.2508 C.ar        1 MOL      -0.0342
      2 C2          0.9831   10.9231  -10.1351 C.ar        1 MOL      -0.0388
      3 C3          0.1184   10.7671  -11.2561 C.ar        1 MOL      -0.0738
      4 C4          0.5666   10.1518  -12.4451 C.ar        1 MOL      -0.0397
      5 C5          1.8896    9.6894  -12.5158 C.ar        1 MOL       0.1245
      6 C6          2.7457    9.8393  -11.4389 C.ar        1 MOL       0.1240
      7 O7          3.9695    9.3468  -11.6862 O.3         1 MOL      -0.2908
      8 C8          3.8416    8.9324  -13.0614 C.3         1 MOL       0.1873
      9 O9          2.4904    9.0644  -13.5451 O.3         1 MOL      -0.2900
     10 C10         0.5199   11.5319   -8.9329 C.2         1 MOL       0.0041
     11 C11         1.2133   11.7429   -7.7416 C.2         1 MOL      -0.0320
     12 C12         0.3317   12.3607   -6.8730 C.2         1 MOL       0.1510
     13 N13        -0.8333   12.5062   -7.5324 N.pl3       1 MOL      -0.1966
     14 N14        -0.7213   12.0200   -8.7338 N.2         1 MOL      -0.2405
     15 N15         0.6234   12.7303   -5.6131 N.pl3       1 MOL      -0.3098
     16 C16        -2.0268   13.0948   -7.0204 C.3         1 MOL       0.0578
     17 H1          2.9864   10.5284   -9.4861 H           1 MOL       0.0507
     18 H2         -0.8500   11.0960  -11.2182 H           1 MOL       0.0503
     19 H3         -0.0589   10.0383  -13.2454 H           1 MOL       0.0514
     20 H4          4.1594    7.8926  -13.1580 H           1 MOL       0.0974
     21 H5          4.4979    9.5498  -13.6790 H           1 MOL       0.0974
     22 H6          2.1809   11.4951   -7.5253 H           1 MOL       0.0169
     23 H7          1.5126   12.5680   -5.2559 H           1 MOL       0.1782
     24 H8         -0.0510   13.1636   -5.0659 H           1 MOL       0.1782
     25 H9         -2.8109   13.1091   -7.7791 H           1 MOL       0.0589
     26 H10        -1.8294   14.1228   -6.7102 H           1 MOL       0.0589
     27 H11        -2.3844   12.5226   -6.1618 H           1 MOL       0.0589
@<TRIPOS>BOND
     1     1     2  ar
     2     1     6  ar
     3     2     3  ar
     4     2    10   1
     5     3     4  ar
     6     4     5  ar
     7     5     6  ar
     8     5     9   1
     9     6     7   1
    10     7     8   1
    11     8     9   1
    12    10    11   1
    13    10    14   2
    14    11    12   2
    15    12    13   1
    16    12    15   1
    17    13    14   1
    18    13    16   1
    19     1    17   1
    20     3    18   1
    21     4    19   1
    22     8    20   1
    23     8    21   1
    24    11    22   1
    25    15    23   1
    26    15    24   1
    27    16    25   1
    28    16    26   1
    29    16    27   1
@<TRIPOS>SUBSTRUCTURE
     1  MOL      1

