@<TRIPOS>MOLECULE
3ao4_ligand_018
    27    29
SMALL
GAST_HUCK
****
This file was generated by PARSER (from files_GN.cpp)

@<TRIPOS>ATOM
      1 C1          4.8389    4.7347   -7.0239 C.ar        1 MOL      -0.0342
      2 C2          5.0107    3.9820   -5.8318 C.ar        1 MOL      -0.0388
      3 C3          6.1875    3.1942   -5.7035 C.ar        1 MOL      -0.0738
      4 C4          7.1665    3.1686   -6.7179 C.ar        1 MOL      -0.0397
      5 C5          6.9647    3.9327   -7.8777 C.ar        1 MOL       0.1245
      6 C6          5.8214    4.6994   -8.0281 C.ar        1 MOL       0.1240
      7 O7          5.8124    5.3661   -9.1966 O.3         1 MOL      -0.2908
      8 C8          7.0112    4.8732   -9.8246 C.3         1 MOL       0.1873
      9 O9          7.7861    4.0431   -8.9374 O.3         1 MOL      -0.2900
     10 C10         4.0220    4.0340   -4.8062 C.2         1 MOL       0.0041
     11 C11         3.9829    3.3585   -3.5888 C.2         1 MOL      -0.0320
     12 C12         2.8042    3.7340   -2.9663 C.2         1 MOL       0.1510
     13 N13         2.1860    4.6100   -3.7821 N.pl3       1 MOL      -0.1966
     14 N14         2.9032    4.7869   -4.8506 N.2         1 MOL      -0.2405
     15 N15         2.3911    3.3020   -1.7632 N.pl3       1 MOL      -0.3098
     16 C16         0.9401    5.2654   -3.5477 C.3         1 MOL       0.0578
     17 H1          4.0103    5.3147   -7.1732 H           1 MOL       0.0507
     18 H2          6.3498    2.6274   -4.8695 H           1 MOL       0.0503
     19 H3          8.0113    2.6025   -6.6139 H           1 MOL       0.0514
     20 H4          7.6189    5.7208  -10.1489 H           1 MOL       0.0974
     21 H5          6.7369    4.2896  -10.7074 H           1 MOL       0.0974
     22 H6          4.6742    2.7090   -3.2111 H           1 MOL       0.0169
     23 H7          2.9605    2.7259   -1.2275 H           1 MOL       0.1782
     24 H8          1.5554    3.6273   -1.3964 H           1 MOL       0.1782
     25 H9          0.6829    5.9312   -4.3750 H           1 MOL       0.0589
     26 H10         0.9953    5.8559   -2.6313 H           1 MOL       0.0589
     27 H11         0.1458    4.5251   -3.4461 H           1 MOL       0.0589
@<TRIPOS>BOND
     1     1     2  ar
     2     1     6  ar
     3     2     3  ar
     4     2    10   1
     5     3     4  ar
     6     4     5  ar
     7     5     6  ar
     8     5     9   1
     9     6     7   1
    10     7     8   1
    11     8     9   1
    12    10    11   1
    13    10    14   2
    14    11    12   2
    15    12    13   1
    16    12    15   1
    17    13    14   1
    18    13    16   1
    19     1    17   1
    20     3    18   1
    21     4    19   1
    22     8    20   1
    23     8    21   1
    24    11    22   1
    25    15    23   1
    26    15    24   1
    27    16    25   1
    28    16    26   1
    29    16    27   1
@<TRIPOS>SUBSTRUCTURE
     1  MOL      1

