@<TRIPOS>MOLECULE
3ao4_ligand_050
    27    29
SMALL
GAST_HUCK
****
This file was generated by PARSER (from files_GN.cpp)

@<TRIPOS>ATOM
      1 C1         -0.4894   10.7756  -16.6688 C.ar        1 MOL      -0.0342
      2 C2         -1.0439   12.0691  -16.4741 C.ar        1 MOL      -0.0388
      3 C3         -0.8318   13.0457  -17.4849 C.ar        1 MOL      -0.0738
      4 C4         -0.1035   12.7436  -18.6533 C.ar        1 MOL      -0.0397
      5 C5          0.4219   11.4523  -18.8145 C.ar        1 MOL       0.1245
      6 C6          0.2375   10.4884  -17.8367 C.ar        1 MOL       0.1240
      7 O7          0.8096    9.3181  -18.1700 O.3         1 MOL      -0.2908
      8 C8          1.4580    9.6509  -19.4123 C.3         1 MOL       0.1873
      9 O9          1.1162   10.9758  -19.8631 O.3         1 MOL      -0.2900
     10 C10        -1.7897   12.3546  -15.2933 C.2         1 MOL       0.0041
     11 C11        -2.3976   13.5452  -14.9017 C.2         1 MOL      -0.0320
     12 C12        -2.9890   13.3017  -13.6730 C.2         1 MOL       0.1510
     13 N13        -2.7390   12.0150  -13.3606 N.pl3       1 MOL      -0.1966
     14 N14        -2.0398   11.4671  -14.3086 N.2         1 MOL      -0.2405
     15 N15        -3.6779   14.2025  -12.9514 N.pl3       1 MOL      -0.3098
     16 C16        -3.1554   11.3271  -12.1815 C.3         1 MOL       0.0578
     17 H1         -0.6079   10.0337  -15.9752 H           1 MOL       0.0507
     18 H2         -1.2098   13.9905  -17.3890 H           1 MOL       0.0503
     19 H3          0.0377   13.4512  -19.3780 H           1 MOL       0.0514
     20 H4          1.1668    8.9237  -20.1730 H           1 MOL       0.0974
     21 H5          2.5408    9.5903  -19.2768 H           1 MOL       0.0974
     22 H6         -2.4146   14.4346  -15.4042 H           1 MOL       0.0169
     23 H7         -3.7937   15.1063  -13.2842 H           1 MOL       0.1782
     24 H8         -4.0651   13.9481  -12.0990 H           1 MOL       0.1782
     25 H9         -2.8355   10.2833  -12.2024 H           1 MOL       0.0589
     26 H10        -4.2426   11.3516  -12.1034 H           1 MOL       0.0589
     27 H11        -2.7238   11.8049  -11.3005 H           1 MOL       0.0589
@<TRIPOS>BOND
     1     1     2  ar
     2     1     6  ar
     3     2     3  ar
     4     2    10   1
     5     3     4  ar
     6     4     5  ar
     7     5     6  ar
     8     5     9   1
     9     6     7   1
    10     7     8   1
    11     8     9   1
    12    10    11   1
    13    10    14   2
    14    11    12   2
    15    12    13   1
    16    12    15   1
    17    13    14   1
    18    13    16   1
    19     1    17   1
    20     3    18   1
    21     4    19   1
    22     8    20   1
    23     8    21   1
    24    11    22   1
    25    15    23   1
    26    15    24   1
    27    16    25   1
    28    16    26   1
    29    16    27   1
@<TRIPOS>SUBSTRUCTURE
     1  MOL      1

