@<TRIPOS>MOLECULE
3ao4_ligand_015
    27    29
SMALL
GAST_HUCK
****
This file was generated by PARSER (from files_GN.cpp)

@<TRIPOS>ATOM
      1 C1          5.5056   14.7991  -11.8479 C.ar        1 MOL      -0.0342
      2 C2          6.3291   15.9148  -11.5288 C.ar        1 MOL      -0.0388
      3 C3          7.7093   15.8402  -11.8607 C.ar        1 MOL      -0.0738
      4 C4          8.2546   14.7004  -12.4844 C.ar        1 MOL      -0.0397
      5 C5          7.4139   13.6206  -12.7809 C.ar        1 MOL       0.1245
      6 C6          6.0656   13.6674  -12.4721 C.ar        1 MOL       0.1240
      7 O7          5.4298   12.5367  -12.8359 O.3         1 MOL      -0.2908
      8 C8          6.5190   11.7279  -13.3200 C.3         1 MOL       0.1873
      9 O9          7.7601   12.4564  -13.3670 O.3         1 MOL      -0.2900
     10 C10         5.8025   17.0838  -10.9072 C.2         1 MOL       0.0041
     11 C11         4.4905   17.3609  -10.5245 C.2         1 MOL      -0.0320
     12 C12         4.4905   18.6417   -9.9974 C.2         1 MOL       0.1510
     13 N13         5.7560   19.0958  -10.0590 N.pl3       1 MOL      -0.1966
     14 N14         6.5176   18.1855  -10.5892 N.2         1 MOL      -0.2405
     15 N15         3.4118   19.2994   -9.5322 N.pl3       1 MOL      -0.3098
     16 C16         6.2084   20.3831   -9.6422 C.3         1 MOL       0.0578
     17 H1          4.5050   14.7900  -11.6374 H           1 MOL       0.0507
     18 H2          8.3345   16.6192  -11.6594 H           1 MOL       0.0503
     19 H3          9.2484   14.6578  -12.7221 H           1 MOL       0.0514
     20 H4          6.2784   11.3697  -14.3228 H           1 MOL       0.0974
     21 H5          6.6386   10.8623  -12.6634 H           1 MOL       0.0974
     22 H6          3.6745   16.7562  -10.6226 H           1 MOL       0.0169
     23 H7          2.5399   18.8779   -9.5541 H           1 MOL       0.1782
     24 H8          3.5070   20.2023   -9.1956 H           1 MOL       0.1782
     25 H9          7.2846   20.4862   -9.7928 H           1 MOL       0.0589
     26 H10         5.9881   20.5315   -8.5841 H           1 MOL       0.0589
     27 H11         5.7006   21.1558  -10.2218 H           1 MOL       0.0589
@<TRIPOS>BOND
     1     1     2  ar
     2     1     6  ar
     3     2     3  ar
     4     2    10   1
     5     3     4  ar
     6     4     5  ar
     7     5     6  ar
     8     5     9   1
     9     6     7   1
    10     7     8   1
    11     8     9   1
    12    10    11   1
    13    10    14   2
    14    11    12   2
    15    12    13   1
    16    12    15   1
    17    13    14   1
    18    13    16   1
    19     1    17   1
    20     3    18   1
    21     4    19   1
    22     8    20   1
    23     8    21   1
    24    11    22   1
    25    15    23   1
    26    15    24   1
    27    16    25   1
    28    16    26   1
    29    16    27   1
@<TRIPOS>SUBSTRUCTURE
     1  MOL      1

