@<TRIPOS>MOLECULE
3ao4_ligand_003
    27    29
SMALL
GAST_HUCK
****
This file was generated by PARSER (from files_GN.cpp)

@<TRIPOS>ATOM
      1 C1          0.2774   10.9380  -11.3376 C.ar        1 MOL      -0.0342
      2 C2          0.6399   12.1212  -12.0347 C.ar        1 MOL      -0.0388
      3 C3          2.0237   12.3852  -12.2311 C.ar        1 MOL      -0.0738
      4 C4          3.0124   11.5011  -11.7576 C.ar        1 MOL      -0.0397
      5 C5          2.6155   10.3420  -11.0742 C.ar        1 MOL       0.1245
      6 C6          1.2742   10.0670  -10.8661 C.ar        1 MOL       0.1240
      7 O7          1.0943    8.9156  -10.1937 O.3         1 MOL      -0.2908
      8 C8          2.4522    8.4875   -9.9718 C.3         1 MOL       0.1873
      9 O9          3.4111    9.3937  -10.5498 O.3         1 MOL      -0.2900
     10 C10        -0.3383   13.0253  -12.5358 C.2         1 MOL       0.0041
     11 C11        -1.7273   12.9228  -12.5086 C.2         1 MOL      -0.0320
     12 C12        -2.2171   14.0500  -13.1468 C.2         1 MOL       0.1510
     13 N13        -1.1540   14.7847  -13.5283 N.pl3       1 MOL      -0.1966
     14 N14        -0.0603   14.1816  -13.1721 N.2         1 MOL      -0.2405
     15 N15        -3.5181   14.3218  -13.3439 N.pl3       1 MOL      -0.3098
     16 C16        -1.1776   16.0290  -14.2253 C.3         1 MOL       0.0578
     17 H1         -0.6989   10.6956  -11.1646 H           1 MOL       0.0507
     18 H2          2.3311   13.2243  -12.7280 H           1 MOL       0.0503
     19 H3          4.0033   11.6995  -11.9115 H           1 MOL       0.0514
     20 H4          2.5895    7.4957  -10.4088 H           1 MOL       0.0974
     21 H5          2.6334    8.4168   -8.8962 H           1 MOL       0.0974
     22 H6         -2.2919   12.1697  -12.1120 H           1 MOL       0.0169
     23 H7         -4.2014   13.7053  -13.0387 H           1 MOL       0.1782
     24 H8         -3.7764   15.1334  -13.8032 H           1 MOL       0.1782
     25 H9         -0.1657   16.3787  -14.4420 H           1 MOL       0.0589
     26 H10        -1.6773   16.7824  -13.6154 H           1 MOL       0.0589
     27 H11        -1.7162   15.9186  -15.1689 H           1 MOL       0.0589
@<TRIPOS>BOND
     1     1     2  ar
     2     1     6  ar
     3     2     3  ar
     4     2    10   1
     5     3     4  ar
     6     4     5  ar
     7     5     6  ar
     8     5     9   1
     9     6     7   1
    10     7     8   1
    11     8     9   1
    12    10    11   1
    13    10    14   2
    14    11    12   2
    15    12    13   1
    16    12    15   1
    17    13    14   1
    18    13    16   1
    19     1    17   1
    20     3    18   1
    21     4    19   1
    22     8    20   1
    23     8    21   1
    24    11    22   1
    25    15    23   1
    26    15    24   1
    27    16    25   1
    28    16    26   1
    29    16    27   1
@<TRIPOS>SUBSTRUCTURE
     1  MOL      1

