@<TRIPOS>MOLECULE
3ao4_ligand_044
    27    29
SMALL
GAST_HUCK
****
This file was generated by PARSER (from files_GN.cpp)

@<TRIPOS>ATOM
      1 C1          3.7823    5.2298   -8.0347 C.ar        1 MOL      -0.0342
      2 C2          2.8427    5.7910   -7.1280 C.ar        1 MOL      -0.0388
      3 C3          2.0127    6.8463   -7.5949 C.ar        1 MOL      -0.0738
      4 C4          2.1110    7.3253   -8.9165 C.ar        1 MOL      -0.0397
      5 C5          3.0481    6.7437   -9.7838 C.ar        1 MOL       0.1245
      6 C6          3.8718    5.7184   -9.3491 C.ar        1 MOL       0.1240
      7 O7          4.6944    5.2877  -10.3220 O.3         1 MOL      -0.2908
      8 C8          4.3854    6.1995  -11.3934 C.3         1 MOL       0.1873
      9 O9          3.2670    7.0502  -11.0752 O.3         1 MOL      -0.2900
     10 C10         2.7535    5.2936   -5.7952 C.2         1 MOL       0.0041
     11 C11         1.9226    5.7044   -4.7551 C.2         1 MOL      -0.0320
     12 C12         2.2196    4.8955   -3.6708 C.2         1 MOL       0.1510
     13 N13         3.1870    4.0440   -4.0618 N.pl3       1 MOL      -0.1966
     14 N14         3.4957    4.2806   -5.3012 N.2         1 MOL      -0.2405
     15 N15         1.6347    4.9722   -2.4633 N.pl3       1 MOL      -0.3098
     16 C16         3.8065    3.0340   -3.2663 C.3         1 MOL       0.0578
     17 H1          4.4059    4.4693   -7.7558 H           1 MOL       0.0507
     18 H2          1.3249    7.2851   -6.9789 H           1 MOL       0.0503
     19 H3          1.5082    8.0832   -9.2438 H           1 MOL       0.0514
     20 H4          4.1586    5.6272  -12.2952 H           1 MOL       0.0974
     21 H5          5.2599    6.8233  -11.5941 H           1 MOL       0.0974
     22 H6          1.2247    6.4505   -4.7695 H           1 MOL       0.0169
     23 H7          0.9486    5.6371   -2.2975 H           1 MOL       0.1782
     24 H8          1.9009    4.3656   -1.7554 H           1 MOL       0.1782
     25 H9          4.5435    2.4742   -3.8469 H           1 MOL       0.0589
     26 H10         3.0520    2.3350   -2.9005 H           1 MOL       0.0589
     27 H11         4.3119    3.4928   -2.4138 H           1 MOL       0.0589
@<TRIPOS>BOND
     1     1     2  ar
     2     1     6  ar
     3     2     3  ar
     4     2    10   1
     5     3     4  ar
     6     4     5  ar
     7     5     6  ar
     8     5     9   1
     9     6     7   1
    10     7     8   1
    11     8     9   1
    12    10    11   1
    13    10    14   2
    14    11    12   2
    15    12    13   1
    16    12    15   1
    17    13    14   1
    18    13    16   1
    19     1    17   1
    20     3    18   1
    21     4    19   1
    22     8    20   1
    23     8    21   1
    24    11    22   1
    25    15    23   1
    26    15    24   1
    27    16    25   1
    28    16    26   1
    29    16    27   1
@<TRIPOS>SUBSTRUCTURE
     1  MOL      1

