@<TRIPOS>MOLECULE
3ao4_ligand_022
    27    29
SMALL
GAST_HUCK
****
This file was generated by PARSER (from files_GN.cpp)

@<TRIPOS>ATOM
      1 C1         -1.6250    9.2296  -11.8224 C.ar        1 MOL      -0.0342
      2 C2         -1.8368    9.8391  -13.0880 C.ar        1 MOL      -0.0388
      3 C3         -1.5095    9.0912  -14.2530 C.ar        1 MOL      -0.0738
      4 C4         -1.0011    7.7785  -14.1608 C.ar        1 MOL      -0.0397
      5 C5         -0.8150    7.2081  -12.8923 C.ar        1 MOL       0.1245
      6 C6         -1.1144    7.9235  -11.7454 C.ar        1 MOL       0.1240
      7 O7         -0.8720    7.2111  -10.6299 O.3         1 MOL      -0.2908
      8 C8         -0.3017    6.0041  -11.1705 C.3         1 MOL       0.1873
      9 O9         -0.3703    5.9698  -12.6095 O.3         1 MOL      -0.2900
     10 C10        -2.3634   11.1602  -13.1646 C.2         1 MOL       0.0041
     11 C11        -2.6287   11.9408  -14.2883 C.2         1 MOL      -0.0320
     12 C12        -3.1259   13.1475  -13.8240 C.2         1 MOL       0.1510
     13 N13        -3.1522   13.0737  -12.4793 N.pl3       1 MOL      -0.1966
     14 N14        -2.7076   11.9137  -12.0994 N.2         1 MOL      -0.2405
     15 N15        -3.5041   14.1789  -14.5958 N.pl3       1 MOL      -0.3098
     16 C16        -3.5900   14.0898  -11.5793 C.3         1 MOL       0.0578
     17 H1         -1.8389    9.7211  -10.9521 H           1 MOL       0.0507
     18 H2         -1.6433    9.4868  -15.1844 H           1 MOL       0.0503
     19 H3         -0.7774    7.2466  -15.0039 H           1 MOL       0.0514
     20 H4         -0.8355    5.1430  -10.7628 H           1 MOL       0.0974
     21 H5          0.7451    5.9356  -10.8629 H           1 MOL       0.0974
     22 H6         -2.4895   11.6922  -15.2686 H           1 MOL       0.0169
     23 H7         -3.4391   14.1137  -15.5623 H           1 MOL       0.1782
     24 H8         -3.8434   14.9932  -14.1930 H           1 MOL       0.1782
     25 H9         -3.5282   13.7498  -10.5430 H           1 MOL       0.0589
     26 H10        -4.6266   14.3550  -11.7935 H           1 MOL       0.0589
     27 H11        -2.9655   14.9784  -11.6888 H           1 MOL       0.0589
@<TRIPOS>BOND
     1     1     2  ar
     2     1     6  ar
     3     2     3  ar
     4     2    10   1
     5     3     4  ar
     6     4     5  ar
     7     5     6  ar
     8     5     9   1
     9     6     7   1
    10     7     8   1
    11     8     9   1
    12    10    11   1
    13    10    14   2
    14    11    12   2
    15    12    13   1
    16    12    15   1
    17    13    14   1
    18    13    16   1
    19     1    17   1
    20     3    18   1
    21     4    19   1
    22     8    20   1
    23     8    21   1
    24    11    22   1
    25    15    23   1
    26    15    24   1
    27    16    25   1
    28    16    26   1
    29    16    27   1
@<TRIPOS>SUBSTRUCTURE
     1  MOL      1

