@<TRIPOS>MOLECULE
3ao4_ligand_032
    27    29
SMALL
GAST_HUCK
****
This file was generated by PARSER (from files_GN.cpp)

@<TRIPOS>ATOM
      1 C1          1.6268   13.4913  -15.3738 C.ar        1 MOL      -0.0342
      2 C2          0.9258   12.4644  -14.6862 C.ar        1 MOL      -0.0388
      3 C3          1.6405   11.2838  -14.3415 C.ar        1 MOL      -0.0738
      4 C4          3.0057   11.1335  -14.6634 C.ar        1 MOL      -0.0397
      5 C5          3.6633   12.1720  -15.3401 C.ar        1 MOL       0.1245
      6 C6          2.9855   13.3274  -15.6894 C.ar        1 MOL       0.1240
      7 O7          3.7839   14.2075  -16.3198 O.3         1 MOL      -0.2908
      8 C8          5.0113   13.4627  -16.4323 C.3         1 MOL       0.1873
      9 O9          4.9545   12.2140  -15.7160 O.3         1 MOL      -0.2900
     10 C10        -0.4498   12.6044  -14.3409 C.2         1 MOL       0.0041
     11 C11        -1.2991   13.6843  -14.5711 C.2         1 MOL      -0.0320
     12 C12        -2.5312   13.3384  -14.0454 C.2         1 MOL       0.1510
     13 N13        -2.4082   12.1029  -13.5241 N.pl3       1 MOL      -0.1966
     14 N14        -1.1918   11.6773  -13.6993 N.2         1 MOL      -0.2405
     15 N15        -3.6248   14.1183  -14.0690 N.pl3       1 MOL      -0.3098
     16 C16        -3.4362   11.3553  -12.8750 C.3         1 MOL       0.0578
     17 H1          1.1697   14.3612  -15.6491 H           1 MOL       0.0507
     18 H2          1.1761   10.5183  -13.8460 H           1 MOL       0.0503
     19 H3          3.5114   10.2835  -14.4062 H           1 MOL       0.0514
     20 H4          5.8329   14.0657  -16.0402 H           1 MOL       0.0974
     21 H5          5.2082   13.2599  -17.4882 H           1 MOL       0.0974
     22 H6         -1.0787   14.5668  -15.0344 H           1 MOL       0.0169
     23 H7         -3.5831   15.0041  -14.4611 H           1 MOL       0.1782
     24 H8         -4.4548   13.8032  -13.6796 H           1 MOL       0.1782
     25 H9         -3.0738   10.3726  -12.5648 H           1 MOL       0.0589
     26 H10        -4.2753   11.2147  -13.5579 H           1 MOL       0.0589
     27 H11        -3.7852   11.8912  -11.9895 H           1 MOL       0.0589
@<TRIPOS>BOND
     1     1     2  ar
     2     1     6  ar
     3     2     3  ar
     4     2    10   1
     5     3     4  ar
     6     4     5  ar
     7     5     6  ar
     8     5     9   1
     9     6     7   1
    10     7     8   1
    11     8     9   1
    12    10    11   1
    13    10    14   2
    14    11    12   2
    15    12    13   1
    16    12    15   1
    17    13    14   1
    18    13    16   1
    19     1    17   1
    20     3    18   1
    21     4    19   1
    22     8    20   1
    23     8    21   1
    24    11    22   1
    25    15    23   1
    26    15    24   1
    27    16    25   1
    28    16    26   1
    29    16    27   1
@<TRIPOS>SUBSTRUCTURE
     1  MOL      1

