@<TRIPOS>MOLECULE
3ao4_ligand_042
    27    29
SMALL
GAST_HUCK
****
This file was generated by PARSER (from files_GN.cpp)

@<TRIPOS>ATOM
      1 C1         -0.2359    8.5239  -13.1952 C.ar        1 MOL      -0.0342
      2 C2         -1.4266    9.2324  -12.8805 C.ar        1 MOL      -0.0388
      3 C3         -2.0069    9.0286  -11.5980 C.ar        1 MOL      -0.0738
      4 C4         -1.4186    8.1543  -10.6602 C.ar        1 MOL      -0.0397
      5 C5         -0.2395    7.4773  -11.0060 C.ar        1 MOL       0.1245
      6 C6          0.3383    7.6562  -12.2516 C.ar        1 MOL       0.1240
      7 O7          1.4618    6.9296  -12.3931 O.3         1 MOL      -0.2908
      8 C8          1.4957    6.1955  -11.1545 C.3         1 MOL       0.1873
      9 O9          0.4707    6.6292  -10.2399 O.3         1 MOL      -0.2900
     10 C10        -2.0007   10.1217  -13.8342 C.2         1 MOL       0.0041
     11 C11        -3.1534   10.8980  -13.7335 C.2         1 MOL      -0.0320
     12 C12        -3.2772   11.5741  -14.9365 C.2         1 MOL       0.1510
     13 N13        -2.2283   11.2206  -15.7037 N.pl3       1 MOL      -0.1966
     14 N14        -1.4875   10.3724  -15.0570 N.2         1 MOL      -0.2405
     15 N15        -4.2713   12.4216  -15.2459 N.pl3       1 MOL      -0.3098
     16 C16        -1.9475   11.6811  -17.0242 C.3         1 MOL       0.0578
     17 H1          0.2265    8.6321  -14.1009 H           1 MOL       0.0507
     18 H2         -2.8668    9.5108  -11.3301 H           1 MOL       0.0503
     19 H3         -1.8400    8.0138   -9.7398 H           1 MOL       0.0514
     20 H4          2.4744    6.3267  -10.6889 H           1 MOL       0.0974
     21 H5          1.3557    5.1325  -11.3654 H           1 MOL       0.0974
     22 H6         -3.8047   10.9570  -12.9470 H           1 MOL       0.0169
     23 H7         -4.9667   12.6073  -14.6002 H           1 MOL       0.1782
     24 H8         -4.2893   12.8757  -16.1002 H           1 MOL       0.1782
     25 H9         -1.0177   11.2477  -17.3999 H           1 MOL       0.0589
     26 H10        -1.8480   12.7684  -17.0256 H           1 MOL       0.0589
     27 H11        -2.7596   11.3953  -17.6954 H           1 MOL       0.0589
@<TRIPOS>BOND
     1     1     2  ar
     2     1     6  ar
     3     2     3  ar
     4     2    10   1
     5     3     4  ar
     6     4     5  ar
     7     5     6  ar
     8     5     9   1
     9     6     7   1
    10     7     8   1
    11     8     9   1
    12    10    11   1
    13    10    14   2
    14    11    12   2
    15    12    13   1
    16    12    15   1
    17    13    14   1
    18    13    16   1
    19     1    17   1
    20     3    18   1
    21     4    19   1
    22     8    20   1
    23     8    21   1
    24    11    22   1
    25    15    23   1
    26    15    24   1
    27    16    25   1
    28    16    26   1
    29    16    27   1
@<TRIPOS>SUBSTRUCTURE
     1  MOL      1

