@<TRIPOS>MOLECULE
3ao4_ligand_025
    27    29
SMALL
GAST_HUCK
****
This file was generated by PARSER (from files_GN.cpp)

@<TRIPOS>ATOM
      1 C1          1.4767    6.2294   -9.0623 C.ar        1 MOL      -0.0342
      2 C2          2.5724    5.8628   -8.2403 C.ar        1 MOL      -0.0388
      3 C3          3.7749    5.4404   -8.8774 C.ar        1 MOL      -0.0738
      4 C4          3.8804    5.3997  -10.2834 C.ar        1 MOL      -0.0397
      5 C5          2.7760    5.7797  -11.0608 C.ar        1 MOL       0.1245
      6 C6          1.5943    6.1809  -10.4604 C.ar        1 MOL       0.1240
      7 O7          0.6543    6.5082  -11.3628 O.3         1 MOL      -0.2908
      8 C8          1.3144    6.1894  -12.6021 C.3         1 MOL       0.1873
      9 O9          2.6953    5.8302  -12.4032 O.3         1 MOL      -0.2900
     10 C10         2.4696    5.9203   -6.8200 C.2         1 MOL       0.0041
     11 C11         1.3847    6.3219   -6.0389 C.2         1 MOL      -0.0320
     12 C12         1.7805    6.2000   -4.7187 C.2         1 MOL       0.1510
     13 N13         3.0477    5.7433   -4.7279 N.pl3       1 MOL      -0.1966
     14 N14         3.4427    5.5692   -5.9548 N.2         1 MOL      -0.2405
     15 N15         1.0161    6.4876   -3.6500 N.pl3       1 MOL      -0.3098
     16 C16         3.8599    5.4673   -3.5887 C.3         1 MOL       0.0578
     17 H1          0.5908    6.5375   -8.6636 H           1 MOL       0.0507
     18 H2          4.5926    5.1638   -8.3267 H           1 MOL       0.0503
     19 H3          4.7493    5.1023  -10.7356 H           1 MOL       0.0514
     20 H4          1.2580    7.0522  -13.2687 H           1 MOL       0.0974
     21 H5          0.7953    5.3539  -13.0781 H           1 MOL       0.0974
     22 H6          0.4693    6.6486   -6.3552 H           1 MOL       0.0169
     23 H7          0.1126    6.8191   -3.7713 H           1 MOL       0.1782
     24 H8          1.3787    6.3855   -2.7578 H           1 MOL       0.1782
     25 H9          4.8363    5.0794   -3.8877 H           1 MOL       0.0589
     26 H10         3.3728    4.7248   -2.9537 H           1 MOL       0.0589
     27 H11         4.0145    6.3813   -3.0130 H           1 MOL       0.0589
@<TRIPOS>BOND
     1     1     2  ar
     2     1     6  ar
     3     2     3  ar
     4     2    10   1
     5     3     4  ar
     6     4     5  ar
     7     5     6  ar
     8     5     9   1
     9     6     7   1
    10     7     8   1
    11     8     9   1
    12    10    11   1
    13    10    14   2
    14    11    12   2
    15    12    13   1
    16    12    15   1
    17    13    14   1
    18    13    16   1
    19     1    17   1
    20     3    18   1
    21     4    19   1
    22     8    20   1
    23     8    21   1
    24    11    22   1
    25    15    23   1
    26    15    24   1
    27    16    25   1
    28    16    26   1
    29    16    27   1
@<TRIPOS>SUBSTRUCTURE
     1  MOL      1

