@<TRIPOS>MOLECULE
3b68_ligand_012
    49    50
SMALL
GAST_HUCK
****
This file was generated by PARSER (from files_GN.cpp)

@<TRIPOS>ATOM
      1 C24        24.3277    7.2299    2.7150 C.3         1 B68       0.0310
      2 C23        24.7416    5.9325    3.2021 C.2         1 B68       0.1976
      3 O23        23.8981    5.0456    3.2160 O.2         1 B68      -0.3866
      4 N22        25.9857    5.7633    3.6353 N.am        1 B68      -0.2404
      5 C19        26.6311    4.6729    4.1658 C.ar        1 B68       0.0556
      6 C18        27.9536    4.9028    4.6058 C.ar        1 B68      -0.0490
      7 C17        28.7210    3.8731    5.1866 C.ar        1 B68      -0.0458
      8 C20        26.1082    3.3620    4.2965 C.ar        1 B68      -0.0490
      9 C21        26.8694    2.3349    4.8849 C.ar        1 B68      -0.0458
     10 C16        28.1670    2.5885    5.3624 C.ar        1 B68       0.0758
     11 O14        28.8667    1.5695    5.9558 O.3         1 B68      -0.3258
     12 C13        28.9948    1.7075    7.3890 C.3         1 B68       0.1074
     13 C11        29.7053    0.4726    8.0199 C.3         1 B68       0.2174
     14 O11        28.9371   -0.6690    7.6180 O.3         1 B68      -0.3787
     15 C12        31.1407    0.2888    7.4539 C.3         1 B68      -0.0220
     16 C10        29.7805    0.5867    9.4786 C.2         1 B68       0.4188
     17 O10        30.2076    1.6425    9.9388 O.2         1 B68      -0.2202
     18 N9         29.4316   -0.4210   10.2742 N.am        1 B68      -0.0739
     19 C6         29.3951   -0.5400   11.6391 C.ar        1 B68       0.3494
     20 C5         29.9550    0.3433   12.5886 C.ar        1 B68       0.1646
     21 C1         28.7369   -1.6778   12.1257 C.ar        1 B68       0.1428
     22 C2         28.6061   -1.9069   13.5015 C.ar        1 B68       0.0951
     23 C3         29.1330   -1.0118   14.4724 C.ar        1 B68       0.2051
     24 N8         28.9215   -1.3215   15.7962 N.2         1 B68      -0.1292
     25 O1         29.2838   -0.5963   16.8122 O.2         1 B68      -0.4447
     26 O2         28.3566   -2.3243   16.1536 O.2         1 B68      -0.4447
     27 C4         29.8421    0.1417   13.9906 C.ar        1 B68       0.1925
     28 C7         30.4601    1.1692   14.8916 C.3         1 B68       0.4082
     29 F2         29.4816    1.7259   15.6623 F           1 B68      -0.2146
     30 F1         31.4334    0.6122   15.6819 F           1 B68      -0.2146
     31 F3         31.0525    2.2535   14.2864 F           1 B68      -0.2146
     32 H1         25.1322    7.9662    2.7670 H           1 B68       0.0471
     33 H2         23.4926    7.5944    3.3169 H           1 B68       0.0471
     34 H3         24.0031    7.1551    1.6758 H           1 B68       0.0471
     35 H4         26.5331    6.5629    3.5874 H           1 B68       0.2220
     36 H5         28.3670    5.8364    4.5266 H           1 B68       0.0478
     37 H6         29.6748    4.0673    5.5044 H           1 B68       0.0507
     38 H7         25.1704    3.1325    3.9722 H           1 B68       0.0478
     39 H8         26.4721    1.3961    4.9752 H           1 B68       0.0507
     40 H9         28.0054    1.8132    7.8470 H           1 B68       0.0624
     41 H10        29.5773    2.6052    7.6130 H           1 B68       0.0624
     42 H11        29.4271   -1.4537    7.9403 H           1 B68       0.2081
     43 H12        31.6249   -0.5828    7.9029 H           1 B68       0.0246
     44 H13        31.7489    1.1688    7.6706 H           1 B68       0.0246
     45 H14        31.1140    0.1435    6.3745 H           1 B68       0.0246
     46 H15        29.1266   -1.2144    9.8050 H           1 B68       0.4378
     47 H16        30.4804    1.1418   12.2461 H           1 B68       0.1807
     48 H17        28.3542   -2.3701   11.4733 H           1 B68       0.1438
     49 H18        28.1090   -2.7539   13.7822 H           1 B68       0.1091
@<TRIPOS>BOND
     1     1     2   1
     2     2     3   2
     3     2     4  am
     4     4     5   1
     5     5     6  ar
     6     5     8  ar
     7     6     7  ar
     8     7    10  ar
     9     8     9  ar
    10     9    10  ar
    11    10    11   1
    12    11    12   1
    13    12    13   1
    14    13    14   1
    15    13    15   1
    16    13    16   1
    17    16    17   2
    18    16    18  am
    19    18    19   1
    20    19    20  ar
    21    19    21  ar
    22    20    27  ar
    23    21    22  ar
    24    22    23  ar
    25    23    24   1
    26    23    27  ar
    27    24    25   2
    28    24    26   2
    29    27    28   1
    30    28    29   1
    31    28    30   1
    32    28    31   1
    33     1    32   1
    34     1    33   1
    35     1    34   1
    36     4    35   1
    37     6    36   1
    38     7    37   1
    39     8    38   1
    40     9    39   1
    41    12    40   1
    42    12    41   1
    43    14    42   1
    44    15    43   1
    45    15    44   1
    46    15    45   1
    47    18    46   1
    48    20    47   1
    49    21    48   1
    50    22    49   1
@<TRIPOS>SUBSTRUCTURE
     1  B68      1

