@<TRIPOS>MOLECULE
3b68_ligand_003
    49    50
SMALL
GAST_HUCK
****
This file was generated by PARSER (from files_GN.cpp)

@<TRIPOS>ATOM
      1 C24        27.9696    0.8852   12.7814 C.3         1 B68       0.0310
      2 C23        28.1989    1.2619   11.4062 C.2         1 B68       0.1976
      3 O23        27.7224    2.3241   11.0282 O.2         1 B68      -0.3866
      4 N22        28.9848    0.5111   10.6472 N.am        1 B68      -0.2404
      5 C19        29.3923    0.6822    9.3536 C.ar        1 B68       0.0556
      6 C18        30.5613   -0.0084    8.9658 C.ar        1 B68      -0.0490
      7 C17        31.0596    0.0916    7.6543 C.ar        1 B68      -0.0458
      8 C20        28.7122    1.4606    8.3812 C.ar        1 B68      -0.0490
      9 C21        29.2053    1.5545    7.0675 C.ar        1 B68      -0.0458
     10 C16        30.3769    0.8683    6.6999 C.ar        1 B68       0.0758
     11 O14        30.8555    1.0023    5.4279 O.3         1 B68      -0.3258
     12 C13        30.5577   -0.0819    4.5229 C.3         1 B68       0.1074
     13 C11        29.8126    0.4573    3.2602 C.3         1 B68       0.2174
     14 O11        30.6095    1.5189    2.7123 O.3         1 B68      -0.3787
     15 C12        29.7516   -0.6341    2.1531 C.3         1 B68      -0.0220
     16 C10        28.4562    0.9104    3.6037 C.2         1 B68       0.4188
     17 O10        27.6847    0.0840    4.0778 O.2         1 B68      -0.2202
     18 N9         28.0832    2.1714    3.4108 N.am        1 B68      -0.0739
     19 C6         26.9223    2.8482    3.6990 C.ar        1 B68       0.3494
     20 C5         26.9233    4.2258    3.3989 C.ar        1 B68       0.1646
     21 C1         25.7510    2.3097    4.2682 C.ar        1 B68       0.1428
     22 C2         24.6293    3.1180    4.5017 C.ar        1 B68       0.0951
     23 C3         24.6045    4.5024    4.1795 C.ar        1 B68       0.2051
     24 N8         23.4303    5.1796    4.4226 N.2         1 B68      -0.1292
     25 O1         23.2165    6.4321    4.1556 O.2         1 B68      -0.4447
     26 O2         22.4545    4.6481    4.8879 O.2         1 B68      -0.4447
     27 C4         25.7990    5.0727    3.6262 C.ar        1 B68       0.1925
     28 C7         25.9384    6.5271    3.2678 C.3         1 B68       0.4082
     29 F2         25.0605    6.8616    2.2643 F           1 B68      -0.2146
     30 F1         25.7194    7.3154    4.3709 F           1 B68      -0.2146
     31 F3         27.1738    6.9264    2.8062 F           1 B68      -0.2146
     32 H1         28.4339   -0.0746   13.0241 H           1 B68       0.0471
     33 H2         26.8987    0.8050   12.9752 H           1 B68       0.0471
     34 H3         28.3952    1.6461   13.4354 H           1 B68       0.0471
     35 H4         29.3788   -0.2533   11.0995 H           1 B68       0.2220
     36 H5         31.0697   -0.5845    9.6456 H           1 B68       0.0478
     37 H6         31.9186   -0.4025    7.3971 H           1 B68       0.0507
     38 H7         27.8467    1.9449    8.6065 H           1 B68       0.0478
     39 H8         28.7078    2.1228    6.3803 H           1 B68       0.0507
     40 H9         29.9802   -0.8973    4.9764 H           1 B68       0.0624
     41 H10        31.5192   -0.5054    4.2314 H           1 B68       0.0624
     42 H11        30.7151    2.1786    3.4286 H           1 B68       0.2081
     43 H12        29.2304   -0.2564    1.2700 H           1 B68       0.0246
     44 H13        29.2327   -1.5262    2.5106 H           1 B68       0.0246
     45 H14        30.7609   -0.9237    1.8528 H           1 B68       0.0246
     46 H15        28.7626    2.7244    3.0008 H           1 B68       0.4378
     47 H16        27.7804    4.6142    2.9968 H           1 B68       0.1807
     48 H17        25.6791    1.3214    4.5165 H           1 B68       0.1438
     49 H18        23.8156    2.6568    4.9114 H           1 B68       0.1091
@<TRIPOS>BOND
     1     1     2   1
     2     2     3   2
     3     2     4  am
     4     4     5   1
     5     5     6  ar
     6     5     8  ar
     7     6     7  ar
     8     7    10  ar
     9     8     9  ar
    10     9    10  ar
    11    10    11   1
    12    11    12   1
    13    12    13   1
    14    13    14   1
    15    13    15   1
    16    13    16   1
    17    16    17   2
    18    16    18  am
    19    18    19   1
    20    19    20  ar
    21    19    21  ar
    22    20    27  ar
    23    21    22  ar
    24    22    23  ar
    25    23    24   1
    26    23    27  ar
    27    24    25   2
    28    24    26   2
    29    27    28   1
    30    28    29   1
    31    28    30   1
    32    28    31   1
    33     1    32   1
    34     1    33   1
    35     1    34   1
    36     4    35   1
    37     6    36   1
    38     7    37   1
    39     8    38   1
    40     9    39   1
    41    12    40   1
    42    12    41   1
    43    14    42   1
    44    15    43   1
    45    15    44   1
    46    15    45   1
    47    18    46   1
    48    20    47   1
    49    21    48   1
    50    22    49   1
@<TRIPOS>SUBSTRUCTURE
     1  B68      1

