@<TRIPOS>MOLECULE
3b68_ligand_025
    49    50
SMALL
GAST_HUCK
****
This file was generated by PARSER (from files_GN.cpp)

@<TRIPOS>ATOM
      1 C24        29.0956    2.7852    3.8502 C.3         1 B68       0.0310
      2 C23        28.9471    2.4821    5.2528 C.2         1 B68       0.1976
      3 O23        27.9087    2.8411    5.7960 O.2         1 B68      -0.3866
      4 N22        29.8938    1.7974    5.8895 N.am        1 B68      -0.2404
      5 C19        29.9681    1.4403    7.2074 C.ar        1 B68       0.0556
      6 C18        30.7412    0.3019    7.5275 C.ar        1 B68      -0.0490
      7 C17        30.8619   -0.1355    8.8593 C.ar        1 B68      -0.0458
      8 C20        29.3909    2.1751    8.2733 C.ar        1 B68      -0.0490
      9 C21        29.5281    1.7522    9.6095 C.ar        1 B68      -0.0458
     10 C16        30.2429    0.5831    9.9085 C.ar        1 B68       0.0758
     11 O14        30.4450    0.2269   11.2143 O.3         1 B68      -0.3258
     12 C13        29.2755   -0.1787   11.9653 C.3         1 B68       0.1074
     13 C11        29.4408    0.2428   13.4566 C.3         1 B68       0.2174
     14 O11        28.3149   -0.2852   14.1712 O.3         1 B68      -0.3787
     15 C12        30.6877   -0.4663   14.0674 C.3         1 B68      -0.0220
     16 C10        29.4210    1.7061   13.5829 C.2         1 B68       0.4188
     17 O10        28.4807    2.2957   13.0738 O.2         1 B68      -0.2202
     18 N9         30.3768    2.3857   14.2155 N.am        1 B68      -0.0739
     19 C6         30.5447    3.7285   14.4698 C.ar        1 B68       0.3494
     20 C5         29.5308    4.7114   14.4888 C.ar        1 B68       0.1646
     21 C1         31.8483    4.1401   14.7943 C.ar        1 B68       0.1428
     22 C2         32.1159    5.4648   15.1570 C.ar        1 B68       0.0951
     23 C3         31.1034    6.4627   15.1820 C.ar        1 B68       0.2051
     24 N8         31.4724    7.7180   15.6020 N.2         1 B68      -0.1292
     25 O1         30.6582    8.7191   15.7445 O.2         1 B68      -0.4447
     26 O2         32.6007    8.0101   15.9110 O.2         1 B68      -0.4447
     27 C4         29.7821    6.0837   14.7628 C.ar        1 B68       0.1925
     28 C7         28.6614    7.0609   14.5341 C.3         1 B68       0.4082
     29 F2         28.2332    7.6153   15.7098 F           1 B68      -0.2146
     30 F1         29.0389    8.0612   13.6719 F           1 B68      -0.2146
     31 F3         27.5188    6.5611   13.9591 F           1 B68      -0.2146
     32 H1         30.0451    2.4166    3.4510 H           1 B68       0.0471
     33 H2         29.0576    3.8678    3.7039 H           1 B68       0.0471
     34 H3         28.2830    2.3272    3.2819 H           1 B68       0.0471
     35 H4         30.6115    1.4616    5.3363 H           1 B68       0.2220
     36 H5         31.1951   -0.2333    6.7889 H           1 B68       0.0478
     37 H6         31.4214   -0.9737    9.0691 H           1 B68       0.0507
     38 H7         28.8763    3.0453    8.0889 H           1 B68       0.0478
     39 H8         29.1138    2.3058   10.3539 H           1 B68       0.0507
     40 H9         29.1525   -1.2699   11.8718 H           1 B68       0.0624
     41 H10        28.3538    0.2774   11.5764 H           1 B68       0.0624
     42 H11        27.9378    0.4904   14.6715 H           1 B68       0.2081
     43 H12        30.8030   -0.1964   15.1213 H           1 B68       0.0246
     44 H13        31.5996   -0.1875   13.5329 H           1 B68       0.0246
     45 H14        30.5827   -1.5567   14.0117 H           1 B68       0.0246
     46 H15        31.1181    1.8469   14.5317 H           1 B68       0.4378
     47 H16        28.5741    4.4068   14.3200 H           1 B68       0.1807
     48 H17        32.6139    3.4660   14.7941 H           1 B68       0.1438
     49 H18        33.0817    5.6851   15.4158 H           1 B68       0.1091
@<TRIPOS>BOND
     1     1     2   1
     2     2     3   2
     3     2     4  am
     4     4     5   1
     5     5     6  ar
     6     5     8  ar
     7     6     7  ar
     8     7    10  ar
     9     8     9  ar
    10     9    10  ar
    11    10    11   1
    12    11    12   1
    13    12    13   1
    14    13    14   1
    15    13    15   1
    16    13    16   1
    17    16    17   2
    18    16    18  am
    19    18    19   1
    20    19    20  ar
    21    19    21  ar
    22    20    27  ar
    23    21    22  ar
    24    22    23  ar
    25    23    24   1
    26    23    27  ar
    27    24    25   2
    28    24    26   2
    29    27    28   1
    30    28    29   1
    31    28    30   1
    32    28    31   1
    33     1    32   1
    34     1    33   1
    35     1    34   1
    36     4    35   1
    37     6    36   1
    38     7    37   1
    39     8    38   1
    40     9    39   1
    41    12    40   1
    42    12    41   1
    43    14    42   1
    44    15    43   1
    45    15    44   1
    46    15    45   1
    47    18    46   1
    48    20    47   1
    49    21    48   1
    50    22    49   1
@<TRIPOS>SUBSTRUCTURE
     1  B68      1

