@<TRIPOS>MOLECULE
3b68_ligand_024
    49    50
SMALL
GAST_HUCK
****
This file was generated by PARSER (from files_GN.cpp)

@<TRIPOS>ATOM
      1 C24        28.4542   -1.1026   13.8020 C.3         1 B68       0.0310
      2 C23        28.1987    0.0052   12.9043 C.2         1 B68       0.1976
      3 O23        27.3131    0.7858   13.2111 O.2         1 B68      -0.3866
      4 N22        28.9902    0.1779   11.8433 N.am        1 B68      -0.2404
      5 C19        28.9737    1.1520   10.8763 C.ar        1 B68       0.0556
      6 C18        27.8576    1.9554   10.5537 C.ar        1 B68      -0.0490
      7 C17        27.9199    2.9063    9.5160 C.ar        1 B68      -0.0458
      8 C20        30.1544    1.3137   10.1189 C.ar        1 B68      -0.0490
      9 C21        30.2161    2.2657    9.0830 C.ar        1 B68      -0.0458
     10 C16        29.0926    3.0490    8.7492 C.ar        1 B68       0.0758
     11 O14        29.1209    3.9196    7.6814 O.3         1 B68      -0.3258
     12 C13        29.3246    3.3120    6.3820 C.3         1 B68       0.1074
     13 C11        28.1568    3.5539    5.3569 C.3         1 B68       0.2174
     14 O11        26.9429    3.4291    6.1089 O.3         1 B68      -0.3787
     15 C12        28.1940    4.9892    4.7650 C.3         1 B68      -0.0220
     16 C10        28.1320    2.5876    4.2498 C.2         1 B68       0.4188
     17 O10        27.0846    2.4132    3.6504 O.2         1 B68      -0.2202
     18 N9         29.2132    1.8641    3.9650 N.am        1 B68      -0.0739
     19 C6         29.3305    0.7619    3.1692 C.ar        1 B68       0.3494
     20 C5         30.2113   -0.2325    3.6152 C.ar        1 B68       0.1646
     21 C1         28.6774    0.5831    1.9448 C.ar        1 B68       0.1428
     22 C2         28.8896   -0.5878    1.2050 C.ar        1 B68       0.0951
     23 C3         29.7527   -1.6272    1.6518 C.ar        1 B68       0.2051
     24 N8         29.8720   -2.7361    0.8493 N.2         1 B68      -0.1292
     25 O1         30.6219   -3.7700    1.0994 O.2         1 B68      -0.4447
     26 O2         29.2559   -2.8691   -0.1833 O.2         1 B68      -0.4447
     27 C4         30.4443   -1.4370    2.8957 C.ar        1 B68       0.1925
     28 C7         31.4221   -2.4176    3.4804 C.3         1 B68       0.4082
     29 F2         30.8151   -3.6260    3.7184 F           1 B68      -0.2146
     30 F1         32.4942   -2.5583    2.6328 F           1 B68      -0.2146
     31 F3         31.9743   -2.0853    4.6956 F           1 B68      -0.2146
     32 H1         29.2697   -1.7338   13.4476 H           1 B68       0.0471
     33 H2         27.5573   -1.7194   13.8932 H           1 B68       0.0471
     34 H3         28.7200   -0.7259   14.7934 H           1 B68       0.0471
     35 H4         29.7092   -0.4640   11.7586 H           1 B68       0.2220
     36 H5         26.9814    1.8432   11.0534 H           1 B68       0.0478
     37 H6         27.0947    3.4770    9.3117 H           1 B68       0.0507
     38 H7         30.9840    0.7449   10.3130 H           1 B68       0.0478
     39 H8         31.0773    2.3539    8.5363 H           1 B68       0.0507
     40 H9         29.4758    2.2350    6.4870 H           1 B68       0.0624
     41 H10        30.2637    3.7126    5.9955 H           1 B68       0.0624
     42 H11        26.2081    3.4282    5.4505 H           1 B68       0.2081
     43 H12        27.2766    5.1855    4.2048 H           1 B68       0.0246
     44 H13        29.0450    5.1127    4.0944 H           1 B68       0.0246
     45 H14        28.2701    5.7282    5.5607 H           1 B68       0.0246
     46 H15        29.9838    2.0426    4.5101 H           1 B68       0.4378
     47 H16        30.7001   -0.0680    4.4991 H           1 B68       0.1807
     48 H17        28.0713    1.3102    1.5512 H           1 B68       0.1438
     49 H18        28.4060   -0.6601    0.3109 H           1 B68       0.1091
@<TRIPOS>BOND
     1     1     2   1
     2     2     3   2
     3     2     4  am
     4     4     5   1
     5     5     6  ar
     6     5     8  ar
     7     6     7  ar
     8     7    10  ar
     9     8     9  ar
    10     9    10  ar
    11    10    11   1
    12    11    12   1
    13    12    13   1
    14    13    14   1
    15    13    15   1
    16    13    16   1
    17    16    17   2
    18    16    18  am
    19    18    19   1
    20    19    20  ar
    21    19    21  ar
    22    20    27  ar
    23    21    22  ar
    24    22    23  ar
    25    23    24   1
    26    23    27  ar
    27    24    25   2
    28    24    26   2
    29    27    28   1
    30    28    29   1
    31    28    30   1
    32    28    31   1
    33     1    32   1
    34     1    33   1
    35     1    34   1
    36     4    35   1
    37     6    36   1
    38     7    37   1
    39     8    38   1
    40     9    39   1
    41    12    40   1
    42    12    41   1
    43    14    42   1
    44    15    43   1
    45    15    44   1
    46    15    45   1
    47    18    46   1
    48    20    47   1
    49    21    48   1
    50    22    49   1
@<TRIPOS>SUBSTRUCTURE
     1  B68      1

