@<TRIPOS>MOLECULE
3b68_ligand_006
    49    50
SMALL
GAST_HUCK
****
This file was generated by PARSER (from files_GN.cpp)

@<TRIPOS>ATOM
      1 C24        27.8402   -0.4824   14.5278 C.3         1 B68       0.0310
      2 C23        27.8128    0.3483   13.3356 C.2         1 B68       0.1976
      3 O23        26.9152    1.1783   13.2620 O.2         1 B68      -0.3866
      4 N22        28.7645    0.2142   12.4137 N.am        1 B68      -0.2404
      5 C19        28.8833    0.8463   11.1980 C.ar        1 B68       0.0556
      6 C18        27.7860    1.3646   10.4653 C.ar        1 B68      -0.0490
      7 C17        27.9843    2.0796    9.2736 C.ar        1 B68      -0.0458
      8 C20        30.1692    0.9598   10.6298 C.ar        1 B68      -0.0490
      9 C21        30.3697    1.6835    9.4418 C.ar        1 B68      -0.0458
     10 C16        29.2801    2.2646    8.7582 C.ar        1 B68       0.0758
     11 O14        29.4098    3.1535    7.7193 O.3         1 B68      -0.3258
     12 C13        30.1542    2.8295    6.5306 C.3         1 B68       0.1074
     13 C11        29.2927    2.2488    5.3626 C.3         1 B68       0.2174
     14 O11        30.1434    2.1848    4.1979 O.3         1 B68      -0.3787
     15 C12        28.9351    0.7629    5.6505 C.3         1 B68      -0.0220
     16 C10        28.1620    3.1325    5.0447 C.2         1 B68       0.4188
     17 O10        28.4452    4.2739    4.6809 O.2         1 B68      -0.2202
     18 N9         26.8976    2.7107    5.0769 N.am        1 B68      -0.0739
     19 C6         25.7198    3.3406    4.7730 C.ar        1 B68       0.3494
     20 C5         25.5249    4.7189    4.5495 C.ar        1 B68       0.1646
     21 C1         24.5904    2.5082    4.6906 C.ar        1 B68       0.1428
     22 C2         23.3191    3.0399    4.4410 C.ar        1 B68       0.0951
     23 C3         23.1015    4.4317    4.2369 C.ar        1 B68       0.2051
     24 N8         21.8039    4.8439    4.0456 N.2         1 B68      -0.1292
     25 O1         21.4337    6.0827    3.9013 O.2         1 B68      -0.4447
     26 O2         20.8600    4.0929    4.0582 O.2         1 B68      -0.4447
     27 C4         24.2583    5.2919    4.2475 C.ar        1 B68       0.1925
     28 C7         24.2108    6.7637    3.9403 C.3         1 B68       0.4082
     29 F2         23.6717    6.9771    2.6904 F           1 B68      -0.2146
     30 F1         23.4909    7.4411    4.8979 F           1 B68      -0.2146
     31 F3         25.4246    7.4211    3.8953 F           1 B68      -0.2146
     32 H1         28.6810   -1.1836   14.5170 H           1 B68       0.0471
     33 H2         26.9123   -1.0592   14.5851 H           1 B68       0.0471
     34 H3         27.9228    0.1451   15.4206 H           1 B68       0.0471
     35 H4         29.4990   -0.3763   12.6609 H           1 B68       0.2220
     36 H5         26.8366    1.2352   10.8082 H           1 B68       0.0478
     37 H6         27.1749    2.5015    8.8062 H           1 B68       0.0507
     38 H7         30.9892    0.5777   11.1152 H           1 B68       0.0478
     39 H8         31.3234    1.8178    9.0948 H           1 B68       0.0507
     40 H9         30.9889    2.1676    6.7583 H           1 B68       0.0624
     41 H10        30.5851    3.7821    6.1971 H           1 B68       0.0624
     42 H11        30.4996    3.0952    4.0737 H           1 B68       0.2081
     43 H12        28.3543    0.3435    4.8254 H           1 B68       0.0246
     44 H13        28.3535    0.6690    6.5704 H           1 B68       0.0246
     45 H14        29.8464    0.1652    5.7589 H           1 B68       0.0246
     46 H15        26.7851    1.7845    5.3498 H           1 B68       0.4378
     47 H16        26.3293    5.3357    4.6280 H           1 B68       0.1807
     48 H17        24.6767    1.4991    4.8207 H           1 B68       0.1438
     49 H18        22.5364    2.3805    4.4125 H           1 B68       0.1091
@<TRIPOS>BOND
     1     1     2   1
     2     2     3   2
     3     2     4  am
     4     4     5   1
     5     5     6  ar
     6     5     8  ar
     7     6     7  ar
     8     7    10  ar
     9     8     9  ar
    10     9    10  ar
    11    10    11   1
    12    11    12   1
    13    12    13   1
    14    13    14   1
    15    13    15   1
    16    13    16   1
    17    16    17   2
    18    16    18  am
    19    18    19   1
    20    19    20  ar
    21    19    21  ar
    22    20    27  ar
    23    21    22  ar
    24    22    23  ar
    25    23    24   1
    26    23    27  ar
    27    24    25   2
    28    24    26   2
    29    27    28   1
    30    28    29   1
    31    28    30   1
    32    28    31   1
    33     1    32   1
    34     1    33   1
    35     1    34   1
    36     4    35   1
    37     6    36   1
    38     7    37   1
    39     8    38   1
    40     9    39   1
    41    12    40   1
    42    12    41   1
    43    14    42   1
    44    15    43   1
    45    15    44   1
    46    15    45   1
    47    18    46   1
    48    20    47   1
    49    21    48   1
    50    22    49   1
@<TRIPOS>SUBSTRUCTURE
     1  B68      1

