@<TRIPOS>MOLECULE
3b68_ligand_014
    49    50
SMALL
GAST_HUCK
****
This file was generated by PARSER (from files_GN.cpp)

@<TRIPOS>ATOM
      1 C24        28.4881   -1.1001   16.5787 C.3         1 B68       0.0310
      2 C23        28.9922   -1.1416   15.2252 C.2         1 B68       0.1976
      3 O23        29.7722   -2.0390   14.9413 O.2         1 B68      -0.3866
      4 N22        28.5631   -0.2578   14.3344 N.am        1 B68      -0.2404
      5 C19        28.8734   -0.1196   13.0100 C.ar        1 B68       0.0556
      6 C18        30.0735   -0.5567   12.3944 C.ar        1 B68      -0.0490
      7 C17        30.3099   -0.3154   11.0272 C.ar        1 B68      -0.0458
      8 C20        27.9259    0.5681   12.2229 C.ar        1 B68      -0.0490
      9 C21        28.1530    0.7990   10.8570 C.ar        1 B68      -0.0458
     10 C16        29.3568    0.3803   10.2585 C.ar        1 B68       0.0758
     11 O14        29.6064    0.6670    8.9447 O.3         1 B68      -0.3258
     12 C13        30.0879    2.0110    8.6932 C.3         1 B68       0.1074
     13 C11        29.2078    2.7012    7.6039 C.3         1 B68       0.2174
     14 O11        27.8798    2.7626    8.1367 O.3         1 B68      -0.3787
     15 C12        29.6754    4.1659    7.3665 C.3         1 B68      -0.0220
     16 C10        29.1563    1.9991    6.3190 C.2         1 B68       0.4188
     17 O10        29.9074    1.0575    6.0982 O.2         1 B68      -0.2202
     18 N9         28.2661    2.4242    5.4299 N.am        1 B68      -0.0739
     19 C6         27.9510    2.0192    4.1682 C.ar        1 B68       0.3494
     20 C5         28.6648    1.0924    3.3833 C.ar        1 B68       0.1646
     21 C1         26.8017    2.6055    3.6206 C.ar        1 B68       0.1428
     22 C2         26.3598    2.2468    2.3438 C.ar        1 B68       0.0951
     23 C3         27.0387    1.2848    1.5481 C.ar        1 B68       0.2051
     24 N8         26.4919    0.9990    0.3206 N.2         1 B68      -0.1292
     25 O1         26.9837    0.1528   -0.5327 O.2         1 B68      -0.4447
     26 O2         25.4765    1.5035   -0.0868 O.2         1 B68      -0.4447
     27 C4         28.2343    0.6933    2.0890 C.ar        1 B68       0.1925
     28 C7         29.0582   -0.3455    1.3826 C.3         1 B68       0.4082
     29 F2         28.3080   -1.4713    1.1570 F           1 B68      -0.2146
     30 F1         29.5546    0.1471    0.2022 F           1 B68      -0.2146
     31 F3         30.1688   -0.8105    2.0524 F           1 B68      -0.2146
     32 H1         27.6917   -0.3633   16.6896 H           1 B68       0.0471
     33 H2         29.2933   -0.8389   17.2662 H           1 B68       0.0471
     34 H3         28.0898   -2.0771   16.8596 H           1 B68       0.0471
     35 H4         27.9137    0.3814   14.6691 H           1 B68       0.2220
     36 H5         30.8057   -1.0159   12.9369 H           1 B68       0.0478
     37 H6         31.1865   -0.6244   10.5991 H           1 B68       0.0507
     38 H7         27.0558    0.9066   12.6397 H           1 B68       0.0478
     39 H8         27.4496    1.2946   10.3072 H           1 B68       0.0507
     40 H9         31.1217    1.9354    8.3465 H           1 B68       0.0624
     41 H10        30.0951    2.6441    9.5894 H           1 B68       0.0624
     42 H11        27.5425    1.8416    8.1229 H           1 B68       0.2081
     43 H12        29.0847    4.6528    6.5893 H           1 B68       0.0246
     44 H13        30.7227    4.1945    7.0669 H           1 B68       0.0246
     45 H14        29.5538    4.7516    8.2723 H           1 B68       0.0246
     46 H15        27.7096    3.1525    5.7475 H           1 B68       0.4378
     47 H16        29.5217    0.7033    3.7670 H           1 B68       0.1807
     48 H17        26.2652    3.2972    4.1534 H           1 B68       0.1438
     49 H18        25.5112    2.7065    2.0070 H           1 B68       0.1091
@<TRIPOS>BOND
     1     1     2   1
     2     2     3   2
     3     2     4  am
     4     4     5   1
     5     5     6  ar
     6     5     8  ar
     7     6     7  ar
     8     7    10  ar
     9     8     9  ar
    10     9    10  ar
    11    10    11   1
    12    11    12   1
    13    12    13   1
    14    13    14   1
    15    13    15   1
    16    13    16   1
    17    16    17   2
    18    16    18  am
    19    18    19   1
    20    19    20  ar
    21    19    21  ar
    22    20    27  ar
    23    21    22  ar
    24    22    23  ar
    25    23    24   1
    26    23    27  ar
    27    24    25   2
    28    24    26   2
    29    27    28   1
    30    28    29   1
    31    28    30   1
    32    28    31   1
    33     1    32   1
    34     1    33   1
    35     1    34   1
    36     4    35   1
    37     6    36   1
    38     7    37   1
    39     8    38   1
    40     9    39   1
    41    12    40   1
    42    12    41   1
    43    14    42   1
    44    15    43   1
    45    15    44   1
    46    15    45   1
    47    18    46   1
    48    20    47   1
    49    21    48   1
    50    22    49   1
@<TRIPOS>SUBSTRUCTURE
     1  B68      1

