@<TRIPOS>MOLECULE
3b68_ligand_017
    49    50
SMALL
GAST_HUCK
****
This file was generated by PARSER (from files_GN.cpp)

@<TRIPOS>ATOM
      1 C24        27.7865    3.0685    2.3428 C.3         1 B68       0.0310
      2 C23        27.6621    2.7422    3.7414 C.2         1 B68       0.1976
      3 O23        26.6793    2.0951    4.0827 O.2         1 B68      -0.3866
      4 N22        28.6244    3.1129    4.5818 N.am        1 B68      -0.2404
      5 C19        28.7451    2.9527    5.9296 C.ar        1 B68       0.0556
      6 C18        27.7026    2.6011    6.8246 C.ar        1 B68      -0.0490
      7 C17        27.9491    2.4581    8.2056 C.ar        1 B68      -0.0458
      8 C20        30.0235    3.2222    6.4662 C.ar        1 B68      -0.0490
      9 C21        30.2572    3.1179    7.8497 C.ar        1 B68      -0.0458
     10 C16        29.2305    2.7033    8.7218 C.ar        1 B68       0.0758
     11 O14        29.5073    2.6154   10.0583 O.3         1 B68      -0.3258
     12 C13        29.4415    1.2930   10.6333 C.3         1 B68       0.1074
     13 C11        30.3380    0.2120    9.9469 C.3         1 B68       0.2174
     14 O11        31.6624    0.7645    9.8941 O.3         1 B68      -0.3787
     15 C12        30.4344   -1.0707   10.8370 C.3         1 B68      -0.0220
     16 C10        29.8444   -0.1495    8.6246 C.2         1 B68       0.4188
     17 O10        28.6517   -0.4567    8.5512 O.2         1 B68      -0.2202
     18 N9         30.6457   -0.1520    7.5522 N.am        1 B68      -0.0739
     19 C6         30.3870   -0.4631    6.2513 C.ar        1 B68       0.3494
     20 C5         29.1298   -0.4258    5.6062 C.ar        1 B68       0.1646
     21 C1         31.4983   -0.8684    5.4974 C.ar        1 B68       0.1428
     22 C2         31.3524   -1.2492    4.1554 C.ar        1 B68       0.0951
     23 C3         30.0937   -1.2188    3.4889 C.ar        1 B68       0.2051
     24 N8         30.0884   -1.5604    2.1632 N.2         1 B68      -0.1292
     25 O1         29.0474   -1.4991    1.3878 O.2         1 B68      -0.4447
     26 O2         31.0764   -1.8910    1.5594 O.2         1 B68      -0.4447
     27 C4         28.9380   -0.8324    4.2591 C.ar        1 B68       0.1925
     28 C7         27.5366   -0.8725    3.7210 C.3         1 B68       0.4082
     29 F2         27.3674    0.0587    2.7103 F           1 B68      -0.2146
     30 F1         27.2359   -2.1450    3.2801 F           1 B68      -0.2146
     31 F3         26.5345   -0.5952    4.6323 F           1 B68      -0.2146
     32 H1         28.6854    3.6618    2.1409 H           1 B68       0.0471
     33 H2         26.9121    3.6492    2.0308 H           1 B68       0.0471
     34 H3         27.8408    2.1285    1.7626 H           1 B68       0.0471
     35 H4         29.3776    3.5495    4.1506 H           1 B68       0.2220
     36 H5         26.7535    2.4462    6.4854 H           1 B68       0.0478
     37 H6         27.1778    2.2639    8.8415 H           1 B68       0.0507
     38 H7         30.7893    3.4977    5.8546 H           1 B68       0.0478
     39 H8         31.1968    3.2878    8.2165 H           1 B68       0.0507
     40 H9         28.4056    0.9549   10.6869 H           1 B68       0.0624
     41 H10        29.7804    1.4196   11.6647 H           1 B68       0.0624
     42 H11        32.2440    0.0623    9.5291 H           1 B68       0.2081
     43 H12        31.0480   -1.8347   10.3545 H           1 B68       0.0246
     44 H13        29.4400   -1.4948   11.0184 H           1 B68       0.0246
     45 H14        30.8840   -0.8368   11.8047 H           1 B68       0.0246
     46 H15        31.5809    0.0565    7.7391 H           1 B68       0.4378
     47 H16        28.3314   -0.0989    6.1432 H           1 B68       0.1807
     48 H17        32.4277   -0.9200    5.9264 H           1 B68       0.1438
     49 H18        32.2017   -1.5545    3.6685 H           1 B68       0.1091
@<TRIPOS>BOND
     1     1     2   1
     2     2     3   2
     3     2     4  am
     4     4     5   1
     5     5     6  ar
     6     5     8  ar
     7     6     7  ar
     8     7    10  ar
     9     8     9  ar
    10     9    10  ar
    11    10    11   1
    12    11    12   1
    13    12    13   1
    14    13    14   1
    15    13    15   1
    16    13    16   1
    17    16    17   2
    18    16    18  am
    19    18    19   1
    20    19    20  ar
    21    19    21  ar
    22    20    27  ar
    23    21    22  ar
    24    22    23  ar
    25    23    24   1
    26    23    27  ar
    27    24    25   2
    28    24    26   2
    29    27    28   1
    30    28    29   1
    31    28    30   1
    32    28    31   1
    33     1    32   1
    34     1    33   1
    35     1    34   1
    36     4    35   1
    37     6    36   1
    38     7    37   1
    39     8    38   1
    40     9    39   1
    41    12    40   1
    42    12    41   1
    43    14    42   1
    44    15    43   1
    45    15    44   1
    46    15    45   1
    47    18    46   1
    48    20    47   1
    49    21    48   1
    50    22    49   1
@<TRIPOS>SUBSTRUCTURE
     1  B68      1

