@<TRIPOS>MOLECULE
3bfu_ligand_004
    19    19
SMALL
GAST_HUCK
****
This file was generated by PARSER (from files_GN.cpp)

@<TRIPOS>ATOM
      1 N1        -31.1859   -4.5305   42.4920 N.2         1 R2P      -0.2273
      2 N         -33.8441   -7.0546   41.7132 N.4         1 R2P       0.2348
      3 CA        -32.7024   -7.8246   42.2424 C.3         1 R2P       0.0447
      4 C         -32.1900   -8.8344   41.2724 C.2         1 R2P       0.0876
      5 O2        -30.7391   -6.6601   39.9483 O.2         1 R2P      -0.3723
      6 CD2       -30.8233   -5.6994   40.6982 C.2         1 R2P       0.2535
      7 N2        -30.5282   -4.4976   40.2926 N.am        1 R2P      -0.2055
      8 SE1       -30.6810   -3.3202   41.4835 S.3         1 R2P       0.0735
      9 CG        -31.2281   -5.7078   41.9812 C.2         1 R2P       0.1296
     10 CB        -31.5910   -6.8662   42.7914 C.3         1 R2P       0.0738
     11 O         -31.0791   -9.5380   41.5610 O.co2       1 R2P      -0.5641
     12 O         -32.8069   -9.0904   40.0925 O.co2       1 R2P      -0.5641
     13 H1        -34.1792   -6.4064   42.4249 H           1 R2P       0.2012
     14 H2        -34.6054   -7.6839   41.4524 H           1 R2P       0.2012
     15 H3        -33.5498   -6.5261   40.8884 H           1 R2P       0.2012
     16 H4        -33.0893   -8.4025   43.0880 H           1 R2P       0.1059
     17 H5        -30.2695   -4.3056   39.3781 H           1 R2P       0.2067
     18 H6        -30.6740   -7.4376   42.9846 H           1 R2P       0.0598
     19 H7        -31.9369   -6.5212   43.7752 H           1 R2P       0.0598
@<TRIPOS>BOND
     1     1     8   1
     2     9     1   2
     3     3     2   1
     4     3     4   1
     5    10     3   1
     6     4    11  ar
     7     4    12  ar
     8     6     5   2
     9     6     7  am
    10     9     6   1
    11     7     8   1
    12     9    10   1
    13     2    13   1
    14     2    14   1
    15     2    15   1
    16     3    16   1
    17     7    17   1
    18    10    18   1
    19    10    19   1
@<TRIPOS>SUBSTRUCTURE
     1  R2P      3

