@<TRIPOS>MOLECULE
3bfu_ligand_002
    19    19
SMALL
GAST_HUCK
****
This file was generated by PARSER (from files_GN.cpp)

@<TRIPOS>ATOM
      1 N1        -30.0448   -3.6331   42.6019 N.2         1 R2P      -0.2273
      2 N         -30.7648   -4.4591   39.9218 N.4         1 R2P       0.2348
      3 CA        -30.4387   -5.8254   40.3846 C.3         1 R2P       0.0447
      4 C         -29.3613   -6.3664   39.5282 C.2         1 R2P       0.0876
      5 O2        -32.2664   -5.7638   43.8963 O.2         1 R2P      -0.3723
      6 CD2       -31.5637   -4.8068   43.6089 C.2         1 R2P       0.2535
      7 N2        -31.7498   -3.6266   44.1400 N.am        1 R2P      -0.2055
      8 SE1       -30.6779   -2.4635   43.5782 S.3         1 R2P       0.0735
      9 CG        -30.5687   -4.7962   42.7156 C.2         1 R2P       0.1296
     10 CB        -30.0881   -5.9089   41.9067 C.3         1 R2P       0.0738
     11 O         -29.4752   -7.5807   38.9436 O.co2       1 R2P      -0.5641
     12 O         -28.3425   -5.5699   39.1275 O.co2       1 R2P      -0.5641
     13 H1        -31.6865   -4.1883   40.2818 H           1 R2P       0.2012
     14 H2        -30.7789   -4.4217   38.9021 H           1 R2P       0.2012
     15 H3        -30.0669   -3.8008   40.2647 H           1 R2P       0.2012
     16 H4        -31.3392   -6.4165   40.2124 H           1 R2P       0.1059
     17 H5        -32.4317   -3.4395   44.8079 H           1 R2P       0.2067
     18 H6        -29.0074   -5.9519   42.0432 H           1 R2P       0.0598
     19 H7        -30.4791   -6.8520   42.2938 H           1 R2P       0.0598
@<TRIPOS>BOND
     1     1     8   1
     2     9     1   2
     3     3     2   1
     4     3     4   1
     5    10     3   1
     6     4    11  ar
     7     4    12  ar
     8     6     5   2
     9     6     7  am
    10     9     6   1
    11     7     8   1
    12     9    10   1
    13     2    13   1
    14     2    14   1
    15     2    15   1
    16     3    16   1
    17     7    17   1
    18    10    18   1
    19    10    19   1
@<TRIPOS>SUBSTRUCTURE
     1  R2P      3

