@<TRIPOS>MOLECULE
3bfu_ligand_010
    19    19
SMALL
GAST_HUCK
****
This file was generated by PARSER (from files_GN.cpp)

@<TRIPOS>ATOM
      1 N1        -32.4584   -7.7860   40.8966 N.2         1 R2P      -0.2273
      2 N         -31.8297   -4.4512   43.5151 N.4         1 R2P       0.2348
      3 CA        -31.4357   -5.2586   42.3417 C.3         1 R2P       0.0447
      4 C         -30.1754   -4.7014   41.7848 C.2         1 R2P       0.0876
      5 O2        -29.4780   -8.8778   41.9804 O.2         1 R2P      -0.3723
      6 CD2       -30.5080   -8.6416   41.3593 C.2         1 R2P       0.2535
      7 N2        -30.8787   -9.3751   40.3400 N.am        1 R2P      -0.2055
      8 SE1       -32.3945   -8.9607   39.7366 S.3         1 R2P       0.0735
      9 CG        -31.4271   -7.7036   41.6486 C.2         1 R2P       0.1296
     10 CB        -31.3894   -6.7649   42.7670 C.3         1 R2P       0.0738
     11 O         -30.1057   -3.3804   41.5017 O.co2       1 R2P      -0.5641
     12 O         -29.0845   -5.4722   41.5579 O.co2       1 R2P      -0.5641
     13 H1        -32.7357   -4.7837   43.8722 H           1 R2P       0.2012
     14 H2        -31.9307   -3.4652   43.2434 H           1 R2P       0.2012
     15 H3        -31.1245   -4.5362   44.2509 H           1 R2P       0.2012
     16 H4        -32.2300   -5.1111   41.5939 H           1 R2P       0.1059
     17 H5        -30.3600  -10.1118   39.9936 H           1 R2P       0.2067
     18 H6        -32.2554   -6.9806   43.4012 H           1 R2P       0.0598
     19 H7        -30.4933   -6.9172   43.3836 H           1 R2P       0.0598
@<TRIPOS>BOND
     1     1     8   1
     2     9     1   2
     3     3     2   1
     4     3     4   1
     5    10     3   1
     6     4    11  ar
     7     4    12  ar
     8     6     5   2
     9     6     7  am
    10     9     6   1
    11     7     8   1
    12     9    10   1
    13     2    13   1
    14     2    14   1
    15     2    15   1
    16     3    16   1
    17     7    17   1
    18    10    18   1
    19    10    19   1
@<TRIPOS>SUBSTRUCTURE
     1  R2P      3

