@<TRIPOS>MOLECULE
3bfu_ligand_011
    19    19
SMALL
GAST_HUCK
****
This file was generated by PARSER (from files_GN.cpp)

@<TRIPOS>ATOM
      1 N1        -31.3439   -7.5469   42.4860 N.2         1 R2P      -0.2273
      2 N         -30.0767   -5.6326   39.8857 N.4         1 R2P       0.2348
      3 CA        -29.8395   -4.7844   41.0677 C.3         1 R2P       0.0447
      4 C         -30.6792   -3.5730   41.0120 C.2         1 R2P       0.0876
      5 O2        -32.5651   -4.5360   43.2416 O.2         1 R2P      -0.3723
      6 CD2       -32.3957   -5.7144   42.9680 C.2         1 R2P       0.2535
      7 N2        -33.3512   -6.5959   43.0817 N.am        1 R2P      -0.2055
      8 SE1       -32.8547   -8.1660   42.7571 S.3         1 R2P       0.0735
      9 CG        -31.2339   -6.2767   42.6116 C.2         1 R2P       0.1296
     10 CB        -29.9696   -5.5768   42.4027 C.3         1 R2P       0.0738
     11 O         -31.8927   -3.5854   40.4190 O.co2       1 R2P      -0.5641
     12 O         -30.2388   -2.4079   41.5451 O.co2       1 R2P      -0.5641
     13 H1        -29.4171   -6.4131   39.8766 H           1 R2P       0.2012
     14 H2        -29.9568   -5.0763   39.0341 H           1 R2P       0.2012
     15 H3        -31.0307   -5.9971   39.9144 H           1 R2P       0.2012
     16 H4        -28.8013   -4.4578   40.9894 H           1 R2P       0.1059
     17 H5        -34.2608   -6.3661   43.3372 H           1 R2P       0.2067
     18 H6        -29.7980   -4.8996   43.2438 H           1 R2P       0.0598
     19 H7        -29.1588   -6.3079   42.4376 H           1 R2P       0.0598
@<TRIPOS>BOND
     1     1     8   1
     2     9     1   2
     3     3     2   1
     4     3     4   1
     5    10     3   1
     6     4    11  ar
     7     4    12  ar
     8     6     5   2
     9     6     7  am
    10     9     6   1
    11     7     8   1
    12     9    10   1
    13     2    13   1
    14     2    14   1
    15     2    15   1
    16     3    16   1
    17     7    17   1
    18    10    18   1
    19    10    19   1
@<TRIPOS>SUBSTRUCTURE
     1  R2P      3

