@<TRIPOS>MOLECULE
3bfu_ligand_016
    19    19
SMALL
GAST_HUCK
****
This file was generated by PARSER (from files_GN.cpp)

@<TRIPOS>ATOM
      1 N1        -30.6463   -7.4835   40.5155 N.2         1 R2P      -0.2273
      2 N         -30.4250   -4.4039   43.6854 N.4         1 R2P       0.2348
      3 CA        -30.5097   -5.6145   42.8450 C.3         1 R2P       0.0447
      4 C         -31.8096   -6.2882   43.0559 C.2         1 R2P       0.0876
      5 O2        -28.4665   -5.4229   39.0465 O.2         1 R2P      -0.3723
      6 CD2       -29.1920   -6.3490   39.3808 C.2         1 R2P       0.2535
      7 N2        -29.2115   -7.4770   38.7264 N.am        1 R2P      -0.2055
      8 SE1       -30.2824   -8.6042   39.3596 S.3         1 R2P       0.0735
      9 CG        -30.0259   -6.3665   40.4352 C.2         1 R2P       0.1296
     10 CB        -30.2399   -5.2505   41.3557 C.3         1 R2P       0.0738
     11 O         -32.9545   -5.5820   43.1705 O.co2       1 R2P      -0.5641
     12 O         -31.8762   -7.6275   43.2365 O.co2       1 R2P      -0.5641
     13 H1        -29.5105   -3.9562   43.5561 H           1 R2P       0.2012
     14 H2        -30.5361   -4.6614   44.6716 H           1 R2P       0.2012
     15 H3        -31.1635   -3.7419   43.4231 H           1 R2P       0.2012
     16 H4        -29.7143   -6.2732   43.1865 H           1 R2P       0.1059
     17 H5        -28.6654   -7.6381   37.9444 H           1 R2P       0.2067
     18 H6        -29.3413   -4.6267   41.3401 H           1 R2P       0.0598
     19 H7        -31.0564   -4.6438   40.9675 H           1 R2P       0.0598
@<TRIPOS>BOND
     1     1     8   1
     2     9     1   2
     3     3     2   1
     4     3     4   1
     5    10     3   1
     6     4    11  ar
     7     4    12  ar
     8     6     5   2
     9     6     7  am
    10     9     6   1
    11     7     8   1
    12     9    10   1
    13     2    13   1
    14     2    14   1
    15     2    15   1
    16     3    16   1
    17     7    17   1
    18    10    18   1
    19    10    19   1
@<TRIPOS>SUBSTRUCTURE
     1  R2P      3

