@<TRIPOS>MOLECULE
3bfu_ligand_003
    19    19
SMALL
GAST_HUCK
****
This file was generated by PARSER (from files_GN.cpp)

@<TRIPOS>ATOM
      1 N1        -30.5959   -4.0554   42.1272 N.2         1 R2P      -0.2273
      2 N         -33.6783   -6.9070   41.5008 N.4         1 R2P       0.2348
      3 CA        -32.3402   -7.3917   41.8879 C.3         1 R2P       0.0447
      4 C         -32.0145   -8.6107   41.1154 C.2         1 R2P       0.0876
      5 O2        -32.8754   -5.4609   44.1171 O.2         1 R2P      -0.3723
      6 CD2       -32.0921   -4.7340   43.5265 C.2         1 R2P       0.2535
      7 N2        -31.8642   -3.5177   43.9479 N.am        1 R2P      -0.2055
      8 SE1       -30.7241   -2.6854   43.0392 S.3         1 R2P       0.0735
      9 CG        -31.3500   -5.0400   42.4506 C.2         1 R2P       0.1296
     10 CB        -31.2608   -6.2842   41.6852 C.3         1 R2P       0.0738
     11 O         -32.3740   -8.7476   39.8182 O.co2       1 R2P      -0.5641
     12 O         -31.3740   -9.6387   41.7169 O.co2       1 R2P      -0.5641
     13 H1        -33.9769   -6.1713   42.1401 H           1 R2P       0.2012
     14 H2        -34.3592   -7.6691   41.5282 H           1 R2P       0.2012
     15 H3        -33.6452   -6.5323   40.5504 H           1 R2P       0.2012
     16 H4        -32.3723   -7.6693   42.9433 H           1 R2P       0.1059
     17 H5        -32.2969   -3.1387   44.7305 H           1 R2P       0.2067
     18 H6        -31.2687   -6.0172   40.6234 H           1 R2P       0.0598
     19 H7        -30.2783   -6.7155   41.9011 H           1 R2P       0.0598
@<TRIPOS>BOND
     1     1     8   1
     2     9     1   2
     3     3     2   1
     4     3     4   1
     5    10     3   1
     6     4    11  ar
     7     4    12  ar
     8     6     5   2
     9     6     7  am
    10     9     6   1
    11     7     8   1
    12     9    10   1
    13     2    13   1
    14     2    14   1
    15     2    15   1
    16     3    16   1
    17     7    17   1
    18    10    18   1
    19    10    19   1
@<TRIPOS>SUBSTRUCTURE
     1  R2P      3

