@<TRIPOS>MOLECULE
3bfu_ligand_012
    19    19
SMALL
GAST_HUCK
****
This file was generated by PARSER (from files_GN.cpp)

@<TRIPOS>ATOM
      1 N1        -30.6304   -7.5060   39.9974 N.2         1 R2P      -0.2273
      2 N         -34.6956   -7.2337   42.5618 N.4         1 R2P       0.2348
      3 CA        -33.3059   -7.6732   42.3948 C.3         1 R2P       0.0447
      4 C         -33.2127   -9.1166   42.7192 C.2         1 R2P       0.0876
      5 O2        -32.7118  -10.0994   40.2503 O.2         1 R2P      -0.3723
      6 CD2       -31.7339   -9.3728   40.1462 C.2         1 R2P       0.2535
      7 N2        -30.5886   -9.7811   39.6598 N.am        1 R2P      -0.2055
      8 SE1       -29.5012   -8.5315   39.3697 S.3         1 R2P       0.0735
      9 CG        -31.7271   -8.0563   40.3749 C.2         1 R2P       0.1296
     10 CB        -32.8238   -7.2870   40.9520 C.3         1 R2P       0.0738
     11 O         -32.0012   -9.6883   42.9155 O.co2       1 R2P      -0.5641
     12 O         -34.3014   -9.9338   42.6822 O.co2       1 R2P      -0.5641
     13 H1        -34.7367   -6.2206   42.4620 H           1 R2P       0.2012
     14 H2        -35.0489   -7.4931   43.4739 H           1 R2P       0.2012
     15 H3        -35.2658   -7.6595   41.8423 H           1 R2P       0.2012
     16 H4        -32.7049   -7.1159   43.1250 H           1 R2P       0.1059
     17 H5        -30.3638  -10.7054   39.4684 H           1 R2P       0.2067
     18 H6        -32.5333   -6.2510   41.0101 H           1 R2P       0.0598
     19 H7        -33.6629   -7.3260   40.2544 H           1 R2P       0.0598
@<TRIPOS>BOND
     1     1     8   1
     2     9     1   2
     3     3     2   1
     4     3     4   1
     5    10     3   1
     6     4    11  ar
     7     4    12  ar
     8     6     5   2
     9     6     7  am
    10     9     6   1
    11     7     8   1
    12     9    10   1
    13     2    13   1
    14     2    14   1
    15     2    15   1
    16     3    16   1
    17     7    17   1
    18    10    18   1
    19    10    19   1
@<TRIPOS>SUBSTRUCTURE
     1  R2P      3

