@<TRIPOS>MOLECULE
3bfu_ligand_015
    19    19
SMALL
GAST_HUCK
****
This file was generated by PARSER (from files_GN.cpp)

@<TRIPOS>ATOM
      1 N1        -31.4001   -8.4900   40.4359 N.2         1 R2P      -0.2273
      2 N         -33.8879   -6.7505   41.2877 N.4         1 R2P       0.2348
      3 CA        -32.9993   -7.0659   42.4198 C.3         1 R2P       0.0447
      4 C         -33.2360   -8.4562   42.8743 C.2         1 R2P       0.0876
      5 O2        -29.1631   -6.0155   40.4991 O.2         1 R2P      -0.3723
      6 CD2       -29.8182   -7.0233   40.2706 C.2         1 R2P       0.2535
      7 N2        -29.4950   -7.8678   39.3285 N.am        1 R2P      -0.2055
      8 SE1       -30.5608   -9.1579   39.1868 S.3         1 R2P       0.0735
      9 CG        -30.9387   -7.3923   40.9024 C.2         1 R2P       0.1296
     10 CB        -31.5281   -6.6993   42.0435 C.3         1 R2P       0.0738
     11 O         -34.5033   -8.8840   43.0723 O.co2       1 R2P      -0.5641
     12 O         -32.2281   -9.2739   43.2571 O.co2       1 R2P      -0.5641
     13 H1        -33.6997   -5.8009   40.9657 H           1 R2P       0.2012
     14 H2        -34.8646   -6.8162   41.5828 H           1 R2P       0.2012
     15 H3        -33.7203   -7.3994   40.5165 H           1 R2P       0.2012
     16 H4        -33.3000   -6.4180   43.2464 H           1 R2P       0.1059
     17 H5        -28.7376   -7.7439   38.7357 H           1 R2P       0.2067
     18 H6        -30.8777   -6.8633   42.9080 H           1 R2P       0.0598
     19 H7        -31.5159   -5.6242   41.8342 H           1 R2P       0.0598
@<TRIPOS>BOND
     1     1     8   1
     2     9     1   2
     3     3     2   1
     4     3     4   1
     5    10     3   1
     6     4    11  ar
     7     4    12  ar
     8     6     5   2
     9     6     7  am
    10     9     6   1
    11     7     8   1
    12     9    10   1
    13     2    13   1
    14     2    14   1
    15     2    15   1
    16     3    16   1
    17     7    17   1
    18    10    18   1
    19    10    19   1
@<TRIPOS>SUBSTRUCTURE
     1  R2P      3

