@<TRIPOS>MOLECULE
3bfu_ligand_006
    19    19
SMALL
GAST_HUCK
****
This file was generated by PARSER (from files_GN.cpp)

@<TRIPOS>ATOM
      1 N1        -30.6460   -3.1442   42.2381 N.2         1 R2P      -0.2273
      2 N         -29.5461   -5.3757   39.6566 N.4         1 R2P       0.2348
      3 CA        -30.5683   -5.9285   40.5650 C.3         1 R2P       0.0447
      4 C         -29.9070   -6.5296   41.7437 C.2         1 R2P       0.0876
      5 O2        -32.8547   -5.3086   43.5272 O.2         1 R2P      -0.3723
      6 CD2       -32.0703   -4.3971   43.3112 C.2         1 R2P       0.2535
      7 N2        -31.6672   -3.5886   44.2463 N.am        1 R2P      -0.2055
      8 SE1       -30.5604   -2.4419   43.7358 S.3         1 R2P       0.0735
      9 CG        -31.4699   -4.1279   42.1454 C.2         1 R2P       0.1296
     10 CB        -31.6643   -4.8645   40.9057 C.3         1 R2P       0.0738
     11 O         -28.8029   -5.9597   42.2780 O.co2       1 R2P      -0.5641
     12 O         -30.5850   -7.3962   42.5275 O.co2       1 R2P      -0.5641
     13 H1        -29.9941   -5.0464   38.7900 H           1 R2P       0.2012
     14 H2        -28.8819   -6.1327   39.4447 H           1 R2P       0.2012
     15 H3        -29.0544   -4.5928   40.1079 H           1 R2P       0.2012
     16 H4        -31.0449   -6.7458   40.0046 H           1 R2P       0.1059
     17 H5        -31.9898   -3.6319   45.1559 H           1 R2P       0.2067
     18 H6        -32.6299   -5.3830   40.9361 H           1 R2P       0.0598
     19 H7        -31.7261   -4.1415   40.0787 H           1 R2P       0.0598
@<TRIPOS>BOND
     1     1     8   1
     2     9     1   2
     3     3     2   1
     4     3     4   1
     5    10     3   1
     6     4    11  ar
     7     4    12  ar
     8     6     5   2
     9     6     7  am
    10     9     6   1
    11     7     8   1
    12     9    10   1
    13     2    13   1
    14     2    14   1
    15     2    15   1
    16     3    16   1
    17     7    17   1
    18    10    18   1
    19    10    19   1
@<TRIPOS>SUBSTRUCTURE
     1  R2P      3

