@<TRIPOS>MOLECULE
3bfu_ligand_014
    19    19
SMALL
GAST_HUCK
****
This file was generated by PARSER (from files_GN.cpp)

@<TRIPOS>ATOM
      1 N1        -29.5756   -7.0974   40.4350 N.2         1 R2P      -0.2273
      2 N         -33.5938   -7.0638   41.6451 N.4         1 R2P       0.2348
      3 CA        -32.5383   -8.0572   41.9031 C.3         1 R2P       0.0447
      4 C         -32.4924   -9.0480   40.8049 C.2         1 R2P       0.0876
      5 O2        -31.8226   -4.7360   41.1416 O.2         1 R2P      -0.3723
      6 CD2       -30.9362   -5.4326   40.6715 C.2         1 R2P       0.2535
      7 N2        -30.2362   -5.0585   39.6343 N.am        1 R2P      -0.2055
      8 SE1       -29.0395   -6.1471   39.1956 S.3         1 R2P       0.0735
      9 CG        -30.5551   -6.6352   41.1157 C.2         1 R2P       0.1296
     10 CB        -31.1568   -7.4010   42.2028 C.3         1 R2P       0.0738
     11 O         -32.1735   -8.6878   39.5410 O.co2       1 R2P      -0.5641
     12 O         -32.9253  -10.3118   41.0101 O.co2       1 R2P      -0.5641
     13 H1        -33.6618   -6.4214   42.4393 H           1 R2P       0.2012
     14 H2        -34.4919   -7.5398   41.5207 H           1 R2P       0.2012
     15 H3        -33.3770   -6.5331   40.7992 H           1 R2P       0.2012
     16 H4        -32.8450   -8.5852   42.8114 H           1 R2P       0.1059
     17 H5        -30.4013   -4.2452   39.1359 H           1 R2P       0.2067
     18 H6        -30.4712   -8.2048   42.4908 H           1 R2P       0.0598
     19 H7        -31.2530   -6.7508   43.0778 H           1 R2P       0.0598
@<TRIPOS>BOND
     1     1     8   1
     2     9     1   2
     3     3     2   1
     4     3     4   1
     5    10     3   1
     6     4    11  ar
     7     4    12  ar
     8     6     5   2
     9     6     7  am
    10     9     6   1
    11     7     8   1
    12     9    10   1
    13     2    13   1
    14     2    14   1
    15     2    15   1
    16     3    16   1
    17     7    17   1
    18    10    18   1
    19    10    19   1
@<TRIPOS>SUBSTRUCTURE
     1  R2P      3

