@<TRIPOS>MOLECULE
3bfu_ligand_018
    19    19
SMALL
GAST_HUCK
****
This file was generated by PARSER (from files_GN.cpp)

@<TRIPOS>ATOM
      1 N1        -31.0382   -6.5379   41.0101 N.2         1 R2P      -0.2273
      2 N         -29.8508  -10.3418   39.1545 N.4         1 R2P       0.2348
      3 CA        -30.5813   -9.1001   39.4340 C.3         1 R2P       0.0447
      4 C         -31.5748   -9.4060   40.4824 C.2         1 R2P       0.0876
      5 O2        -28.6350   -5.3019   39.0577 O.2         1 R2P      -0.3723
      6 CD2       -29.6072   -5.4831   39.7808 C.2         1 R2P       0.2535
      7 N2        -30.2064   -4.4973   40.3914 N.am        1 R2P      -0.2055
      8 SE1       -31.4446   -4.9915   41.4087 S.3         1 R2P       0.0735
      9 CG        -30.1124   -6.6712   40.1360 C.2         1 R2P       0.1296
     10 CB        -29.5680   -7.9774   39.7864 C.3         1 R2P       0.0738
     11 O         -31.2297   -9.4782   41.7932 O.co2       1 R2P      -0.5641
     12 O         -32.8521   -9.6754   40.1389 O.co2       1 R2P      -0.5641
     13 H1        -29.1777  -10.2056   38.3973 H           1 R2P       0.2012
     14 H2        -30.5079  -11.0816   38.8918 H           1 R2P       0.2012
     15 H3        -29.3377  -10.6263   39.9917 H           1 R2P       0.2012
     16 H4        -31.1069   -8.8219   38.5198 H           1 R2P       0.1059
     17 H5        -29.9404   -3.5704   40.3043 H           1 R2P       0.2067
     18 H6        -28.8986   -7.8732   38.9280 H           1 R2P       0.0598
     19 H7        -28.9633   -8.3244   40.6276 H           1 R2P       0.0598
@<TRIPOS>BOND
     1     1     8   1
     2     9     1   2
     3     3     2   1
     4     3     4   1
     5    10     3   1
     6     4    11  ar
     7     4    12  ar
     8     6     5   2
     9     6     7  am
    10     9     6   1
    11     7     8   1
    12     9    10   1
    13     2    13   1
    14     2    14   1
    15     2    15   1
    16     3    16   1
    17     7    17   1
    18    10    18   1
    19    10    19   1
@<TRIPOS>SUBSTRUCTURE
     1  R2P      3

