@<TRIPOS>MOLECULE
3bkk_ligand_021
    65    67
SMALL
GAST_HUCK
****
This file was generated by PARSER (from files_GN.cpp)

@<TRIPOS>ATOM
      1 CD1        43.2445   37.4900   52.4931 C.ar        1 KAF      -0.0602
      2 CE1        42.6664   37.1882   53.7414 C.ar        1 KAF      -0.0686
      3 CZ         42.4578   38.2137   54.6822 C.ar        1 KAF      -0.0687
      4 CE2        42.8494   39.5279   54.3794 C.ar        1 KAF      -0.0686
      5 CD2        43.3997   39.8317   53.1219 C.ar        1 KAF      -0.0602
      6 CG         43.6064   38.8150   52.1505 C.ar        1 KAF      -0.0392
      7 CB         44.1462   39.1533   50.7963 C.3         1 KAF       0.0159
      8 CA         45.4527   40.0336   50.7797 C.3         1 KAF       0.1038
      9 C          46.5703   39.4914   49.9672 C.2         1 KAF       0.0621
     10 O          47.8366   39.8536   50.2796 O.co2       1 KAF      -0.5664
     11 OXT        46.3517   39.0431   48.7076 O.co2       1 KAF      -0.5664
     12 N          45.2103   41.4096   50.4266 N.am        1 KAF      -0.2696
     13 CBC        44.6688   41.8802   49.3002 C.2         1 KAF       0.1780
     14 OAA        44.2392   41.1099   48.4466 O.2         1 KAF      -0.3970
     15 CAV        44.5693   43.2982   49.0229 C.3         1 KAF       0.0423
     16 CAW        45.3968   43.7497   47.7802 C.3         1 KAF       0.0204
     17 CBM        45.3078   45.2843   47.4185 C.3         1 KAF       0.1919
     18 OAE        44.8796   46.0116   48.5769 O.3         1 KAF      -0.3627
     19 OAF        44.1979   45.3973   46.5053 O.3         1 KAF      -0.3627
     20 CBL        46.6637   45.8823   46.8212 C.3         1 KAF       0.1045
     21 CAX        47.2597   47.1477   47.5543 C.3         1 KAF       0.0090
     22 CBF        47.4565   47.1474   49.0393 C.ar        1 KAF      -0.0407
     23 CAO        47.6811   48.3884   49.6943 C.ar        1 KAF      -0.0603
     24 CAI        47.8426   48.4693   51.0870 C.ar        1 KAF      -0.0686
     25 CAG        47.8087   47.2928   51.8664 C.ar        1 KAF      -0.0687
     26 CAJ        47.6259   46.0487   51.2410 C.ar        1 KAF      -0.0686
     27 CAP        47.4561   45.9758   49.8445 C.ar        1 KAF      -0.0603
     28 NBA        46.8197   46.1340   45.4094 N.am        1 KAF      -0.2759
     29 CBE        45.9724   46.4785   44.4217 C.2         1 KAF       0.2055
     30 OAC        44.7380   46.4772   44.5819 O.2         1 KAF      -0.3846
     31 CBG        46.4752   46.7521   43.1719 C.ar        1 KAF       0.0499
     32 CAR        47.5727   47.6239   43.0152 C.ar        1 KAF      -0.0419
     33 CAL        48.0952   47.9266   41.7436 C.ar        1 KAF      -0.0562
     34 CAH        47.5399   47.3379   40.5976 C.ar        1 KAF      -0.0575
     35 CAK        46.4360   46.4809   40.7281 C.ar        1 KAF      -0.0562
     36 CAQ        45.8945   46.2009   41.9970 C.ar        1 KAF      -0.0419
     37 H1         43.3718   36.7241   51.8246 H           1 KAF       0.0557
     38 H2         42.3859   36.2305   53.9646 H           1 KAF       0.0599
     39 H3         42.0213   38.0004   55.5810 H           1 KAF       0.0559
     40 H4         42.7052   40.2709   55.0681 H           1 KAF       0.0599
     41 H5         43.6437   40.8000   52.9110 H           1 KAF       0.0557
     42 H6         43.3526   39.6655   50.2483 H           1 KAF       0.0467
     43 H7         44.3371   38.2260   50.2520 H           1 KAF       0.0467
     44 H8         45.8456   40.0411   51.8006 H           1 KAF       0.0749
     45 H9         45.5279   42.0750   51.0608 H           1 KAF       0.1876
     46 H10        44.8917   43.8615   49.8977 H           1 KAF       0.0504
     47 H11        43.5170   43.5378   48.8737 H           1 KAF       0.0504
     48 H12        45.0878   43.1607   46.9043 H           1 KAF       0.0342
     49 H13        46.4389   43.4803   47.9732 H           1 KAF       0.0342
     50 H14        44.9178   46.9542   48.3265 H           1 KAF       0.2128
     51 H15        43.6967   46.1978   46.7980 H           1 KAF       0.2128
     52 H16        47.4322   45.1187   46.9956 H           1 KAF       0.0632
     53 H17        46.6088   47.9927   47.2835 H           1 KAF       0.0450
     54 H18        48.2538   47.3570   47.1325 H           1 KAF       0.0450
     55 H19        47.7134   49.2565   49.1517 H           1 KAF       0.0557
     56 H20        47.9636   49.3796   51.5435 H           1 KAF       0.0599
     57 H21        47.9162   47.3453   52.8853 H           1 KAF       0.0559
     58 H22        47.6121   45.1937   51.8052 H           1 KAF       0.0599
     59 H23        47.3396   45.0601   49.4299 H           1 KAF       0.0557
     60 H24        47.7555   46.1236   45.1096 H           1 KAF       0.1852
     61 H25        47.9811   48.0833   43.8284 H           1 KAF       0.0669
     62 H26        48.8870   48.5642   41.6653 H           1 KAF       0.0629
     63 H27        47.9401   47.5433   39.6754 H           1 KAF       0.0653
     64 H28        46.0404   46.0553   39.8953 H           1 KAF       0.0629
     65 H29        45.0924   45.5704   42.0553 H           1 KAF       0.0669
@<TRIPOS>BOND
     1     1     2  ar
     2     1     6  ar
     3     2     3  ar
     4     3     4  ar
     5     4     5  ar
     6     5     6  ar
     7     6     7   1
     8     7     8   1
     9     8     9   1
    10     8    12   1
    11     9    10  ar
    12     9    11  ar
    13    12    13  am
    14    13    14   2
    15    13    15   1
    16    15    16   1
    17    16    17   1
    18    17    18   1
    19    17    19   1
    20    17    20   1
    21    20    21   1
    22    20    28   1
    23    21    22   1
    24    22    23  ar
    25    22    27  ar
    26    23    24  ar
    27    24    25  ar
    28    25    26  ar
    29    26    27  ar
    30    28    29  am
    31    29    30   2
    32    29    31   1
    33    31    32  ar
    34    31    36  ar
    35    32    33  ar
    36    33    34  ar
    37    34    35  ar
    38    35    36  ar
    39     1    37   1
    40     2    38   1
    41     3    39   1
    42     4    40   1
    43     5    41   1
    44     7    42   1
    45     7    43   1
    46     8    44   1
    47    12    45   1
    48    15    46   1
    49    15    47   1
    50    16    48   1
    51    16    49   1
    52    18    50   1
    53    19    51   1
    54    20    52   1
    55    21    53   1
    56    21    54   1
    57    23    55   1
    58    24    56   1
    59    25    57   1
    60    26    58   1
    61    27    59   1
    62    28    60   1
    63    32    61   1
    64    33    62   1
    65    34    63   1
    66    35    64   1
    67    36    65   1
@<TRIPOS>SUBSTRUCTURE
     1  KAF      1

