@<TRIPOS>MOLECULE
3bkk_ligand_014
    65    67
SMALL
GAST_HUCK
****
This file was generated by PARSER (from files_GN.cpp)

@<TRIPOS>ATOM
      1 CD1        44.3569   36.3509   52.2213 C.ar        1 KAF      -0.0602
      2 CE1        43.9541   35.7956   53.4487 C.ar        1 KAF      -0.0686
      3 CZ         43.1270   36.5302   54.3173 C.ar        1 KAF      -0.0687
      4 CE2        42.7286   37.8319   53.9720 C.ar        1 KAF      -0.0686
      5 CD2        43.1440   38.3954   52.7503 C.ar        1 KAF      -0.0602
      6 CG         43.9550   37.6578   51.8557 C.ar        1 KAF      -0.0392
      7 CB         44.3860   38.2571   50.5625 C.3         1 KAF       0.0159
      8 CA         45.5182   39.3368   50.7126 C.3         1 KAF       0.1038
      9 C          46.7285   39.1214   49.8813 C.2         1 KAF       0.0621
     10 O          46.6662   38.6387   48.6210 O.co2       1 KAF      -0.5664
     11 OXT        47.9127   39.6348   50.2902 O.co2       1 KAF      -0.5664
     12 N          45.0317   40.6798   50.5262 N.am        1 KAF      -0.2696
     13 CBC        44.4587   41.1828   49.4349 C.2         1 KAF       0.1780
     14 OAA        44.2476   40.4778   48.4492 O.2         1 KAF      -0.3970
     15 CAV        44.0687   42.5825   49.3609 C.3         1 KAF       0.0423
     16 CAW        44.8143   43.3409   48.2283 C.3         1 KAF       0.0204
     17 CBM        44.4486   44.8576   48.0472 C.3         1 KAF       0.1919
     18 OAE        43.7718   45.4050   49.1771 O.3         1 KAF      -0.3627
     19 OAF        43.4732   44.9177   46.9886 O.3         1 KAF      -0.3627
     20 CBL        45.7115   45.7345   47.6873 C.3         1 KAF       0.1045
     21 CAX        46.5169   46.2525   48.9254 C.3         1 KAF       0.0090
     22 CBF        47.1193   45.2042   49.7978 C.ar        1 KAF      -0.0407
     23 CAO        48.3891   44.6582   49.4911 C.ar        1 KAF      -0.0603
     24 CAI        48.9481   43.6433   50.2906 C.ar        1 KAF      -0.0686
     25 CAG        48.2416   43.1520   51.4028 C.ar        1 KAF      -0.0687
     26 CAJ        46.9820   43.6857   51.7225 C.ar        1 KAF      -0.0686
     27 CAP        46.4297   44.7104   50.9340 C.ar        1 KAF      -0.0603
     28 NBA        45.3828   46.8839   46.8806 N.am        1 KAF      -0.2759
     29 CBE        44.9000   46.8996   45.6423 C.2         1 KAF       0.2055
     30 OAC        44.5831   45.8168   45.1531 O.2         1 KAF      -0.3846
     31 CBG        44.6641   48.0928   44.9578 C.ar        1 KAF       0.0499
     32 CAR        45.2959   49.3061   45.3443 C.ar        1 KAF      -0.0419
     33 CAL        45.0415   50.5147   44.6613 C.ar        1 KAF      -0.0562
     34 CAH        44.1402   50.5371   43.5868 C.ar        1 KAF      -0.0575
     35 CAK        43.5126   49.3523   43.1758 C.ar        1 KAF      -0.0562
     36 CAQ        43.7805   48.1408   43.8452 C.ar        1 KAF      -0.0419
     37 H1         44.9545   35.7968   51.6034 H           1 KAF       0.0557
     38 H2         44.2679   34.8603   53.7122 H           1 KAF       0.0599
     39 H3         42.8274   36.1187   55.2052 H           1 KAF       0.0559
     40 H4         42.1412   38.3730   54.6121 H           1 KAF       0.0599
     41 H5         42.8480   39.3454   52.5152 H           1 KAF       0.0557
     42 H6         43.4979   38.6835   50.0909 H           1 KAF       0.0467
     43 H7         44.7106   37.4585   49.8925 H           1 KAF       0.0467
     44 H8         45.8881   39.2987   51.7420 H           1 KAF       0.0749
     45 H9         45.1534   41.2898   51.2736 H           1 KAF       0.1876
     46 H10        44.2774   43.0834   50.3146 H           1 KAF       0.0504
     47 H11        42.9928   42.6359   49.1994 H           1 KAF       0.0504
     48 H12        44.6226   42.8261   47.2762 H           1 KAF       0.0342
     49 H13        45.8819   43.2217   48.4073 H           1 KAF       0.0342
     50 H14        43.1559   46.0743   48.8067 H           1 KAF       0.2128
     51 H15        42.8773   45.6687   47.2189 H           1 KAF       0.2128
     52 H16        46.4022   45.1345   47.0857 H           1 KAF       0.0632
     53 H17        45.8650   46.8913   49.5287 H           1 KAF       0.0450
     54 H18        47.3221   46.9125   48.5856 H           1 KAF       0.0450
     55 H19        48.9126   44.9936   48.6800 H           1 KAF       0.0557
     56 H20        49.8653   43.2575   50.0595 H           1 KAF       0.0599
     57 H21        48.6450   42.4120   51.9794 H           1 KAF       0.0559
     58 H22        46.4636   43.3236   52.5259 H           1 KAF       0.0599
     59 H23        45.5084   45.0749   51.1792 H           1 KAF       0.0557
     60 H24        45.5836   47.7476   47.2689 H           1 KAF       0.1852
     61 H25        45.9631   49.3316   46.1154 H           1 KAF       0.0669
     62 H26        45.5152   51.3740   44.9494 H           1 KAF       0.0629
     63 H27        43.9507   51.4150   43.0925 H           1 KAF       0.0653
     64 H28        42.8608   49.3653   42.3927 H           1 KAF       0.0629
     65 H29        43.3069   47.2933   43.5235 H           1 KAF       0.0669
@<TRIPOS>BOND
     1     1     2  ar
     2     1     6  ar
     3     2     3  ar
     4     3     4  ar
     5     4     5  ar
     6     5     6  ar
     7     6     7   1
     8     7     8   1
     9     8     9   1
    10     8    12   1
    11     9    10  ar
    12     9    11  ar
    13    12    13  am
    14    13    14   2
    15    13    15   1
    16    15    16   1
    17    16    17   1
    18    17    18   1
    19    17    19   1
    20    17    20   1
    21    20    21   1
    22    20    28   1
    23    21    22   1
    24    22    23  ar
    25    22    27  ar
    26    23    24  ar
    27    24    25  ar
    28    25    26  ar
    29    26    27  ar
    30    28    29  am
    31    29    30   2
    32    29    31   1
    33    31    32  ar
    34    31    36  ar
    35    32    33  ar
    36    33    34  ar
    37    34    35  ar
    38    35    36  ar
    39     1    37   1
    40     2    38   1
    41     3    39   1
    42     4    40   1
    43     5    41   1
    44     7    42   1
    45     7    43   1
    46     8    44   1
    47    12    45   1
    48    15    46   1
    49    15    47   1
    50    16    48   1
    51    16    49   1
    52    18    50   1
    53    19    51   1
    54    20    52   1
    55    21    53   1
    56    21    54   1
    57    23    55   1
    58    24    56   1
    59    25    57   1
    60    26    58   1
    61    27    59   1
    62    28    60   1
    63    32    61   1
    64    33    62   1
    65    34    63   1
    66    35    64   1
    67    36    65   1
@<TRIPOS>SUBSTRUCTURE
     1  KAF      1

