@<TRIPOS>MOLECULE
3bkk_ligand_032
    65    67
SMALL
GAST_HUCK
****
This file was generated by PARSER (from files_GN.cpp)

@<TRIPOS>ATOM
      1 CD1        44.3832   40.8800   48.7151 C.ar        1 KAF      -0.0602
      2 CE1        43.6487   39.9751   49.5016 C.ar        1 KAF      -0.0686
      3 CZ         42.6684   40.4481   50.3885 C.ar        1 KAF      -0.0687
      4 CE2        42.4127   41.8262   50.4834 C.ar        1 KAF      -0.0686
      5 CD2        43.1438   42.7309   49.6982 C.ar        1 KAF      -0.0602
      6 CG         44.1446   42.2720   48.8112 C.ar        1 KAF      -0.0392
      7 CB         44.8753   43.2312   47.9343 C.3         1 KAF       0.0159
      8 CA         46.3457   43.5298   48.3825 C.3         1 KAF       0.1038
      9 C          47.2659   42.4309   48.0564 C.2         1 KAF       0.0621
     10 O          47.4730   42.0821   46.7718 O.co2       1 KAF      -0.5664
     11 OXT        47.8967   41.7394   49.0387 O.co2       1 KAF      -0.5664
     12 N          46.8570   44.7071   47.7210 N.am        1 KAF      -0.2696
     13 CBC        46.7484   45.9571   48.1473 C.2         1 KAF       0.1780
     14 OAA        46.2993   46.1915   49.2732 O.2         1 KAF      -0.3970
     15 CAV        47.1977   47.0633   47.3001 C.3         1 KAF       0.0423
     16 CAW        46.7987   46.9737   45.7943 C.3         1 KAF       0.0204
     17 CBM        45.2706   46.7745   45.4894 C.3         1 KAF       0.1919
     18 OAE        44.5066   47.3878   46.5434 O.3         1 KAF      -0.3627
     19 OAF        44.9445   45.3851   45.6156 O.3         1 KAF      -0.3627
     20 CBL        44.7517   47.2733   44.0832 C.3         1 KAF       0.1045
     21 CAX        44.8340   46.2417   42.9090 C.3         1 KAF       0.0090
     22 CBF        43.8592   46.3264   41.7748 C.ar        1 KAF      -0.0407
     23 CAO        42.7728   47.2401   41.7071 C.ar        1 KAF      -0.0603
     24 CAI        41.8050   47.1546   40.6827 C.ar        1 KAF      -0.0686
     25 CAG        41.9095   46.1653   39.6892 C.ar        1 KAF      -0.0687
     26 CAJ        43.0020   45.2794   39.7103 C.ar        1 KAF      -0.0686
     27 CAP        43.9616   45.3584   40.7415 C.ar        1 KAF      -0.0603
     28 NBA        45.4568   48.4528   43.6488 N.am        1 KAF      -0.2759
     29 CBE        45.2627   49.7226   43.9926 C.2         1 KAF       0.2055
     30 OAC        44.2993   50.0026   44.6940 O.2         1 KAF      -0.3846
     31 CBG        46.1790   50.7183   43.6226 C.ar        1 KAF       0.0499
     32 CAR        47.1739   50.4978   42.6308 C.ar        1 KAF      -0.0419
     33 CAL        48.1179   51.4905   42.2973 C.ar        1 KAF      -0.0562
     34 CAH        48.0795   52.7367   42.9397 C.ar        1 KAF      -0.0575
     35 CAK        47.0931   52.9948   43.9060 C.ar        1 KAF      -0.0562
     36 CAQ        46.1542   51.9954   44.2362 C.ar        1 KAF      -0.0419
     37 H1         45.0796   40.5146   48.0593 H           1 KAF       0.0557
     38 H2         43.8202   38.9735   49.4184 H           1 KAF       0.0599
     39 H3         42.1335   39.7925   50.9574 H           1 KAF       0.0559
     40 H4         41.6908   42.1752   51.1110 H           1 KAF       0.0599
     41 H5         42.9387   43.7306   49.7726 H           1 KAF       0.0557
     42 H6         44.3351   44.1826   47.9088 H           1 KAF       0.0467
     43 H7         44.8798   42.8581   46.9063 H           1 KAF       0.0467
     44 H8         46.3671   43.6977   49.4667 H           1 KAF       0.0749
     45 H9         47.2758   44.5921   46.8426 H           1 KAF       0.1876
     46 H10        48.2907   47.1494   47.3723 H           1 KAF       0.0504
     47 H11        46.7836   48.0045   47.6963 H           1 KAF       0.0504
     48 H12        47.3716   46.1780   45.3100 H           1 KAF       0.0342
     49 H13        47.1248   47.9203   45.3375 H           1 KAF       0.0342
     50 H14        44.1019   48.1909   46.1522 H           1 KAF       0.2128
     51 H15        45.6661   44.9000   45.1720 H           1 KAF       0.2128
     52 H16        43.6896   47.5021   44.2335 H           1 KAF       0.0632
     53 H17        44.6983   45.2392   43.3145 H           1 KAF       0.0450
     54 H18        45.8450   46.2657   42.4886 H           1 KAF       0.0450
     55 H19        42.6388   47.9730   42.4090 H           1 KAF       0.0557
     56 H20        41.0030   47.7973   40.6687 H           1 KAF       0.0599
     57 H21        41.2047   46.0846   38.9511 H           1 KAF       0.0559
     58 H22        43.0913   44.5559   38.9899 H           1 KAF       0.0599
     59 H23        44.7315   44.6827   40.7447 H           1 KAF       0.0557
     60 H24        46.2488   48.2845   43.1202 H           1 KAF       0.1852
     61 H25        47.2459   49.6084   42.1355 H           1 KAF       0.0669
     62 H26        48.8338   51.3071   41.5883 H           1 KAF       0.0629
     63 H27        48.7619   53.4672   42.6954 H           1 KAF       0.0653
     64 H28        47.0592   53.9055   44.3709 H           1 KAF       0.0629
     65 H29        45.4666   52.2174   44.9629 H           1 KAF       0.0669
@<TRIPOS>BOND
     1     1     2  ar
     2     1     6  ar
     3     2     3  ar
     4     3     4  ar
     5     4     5  ar
     6     5     6  ar
     7     6     7   1
     8     7     8   1
     9     8     9   1
    10     8    12   1
    11     9    10  ar
    12     9    11  ar
    13    12    13  am
    14    13    14   2
    15    13    15   1
    16    15    16   1
    17    16    17   1
    18    17    18   1
    19    17    19   1
    20    17    20   1
    21    20    21   1
    22    20    28   1
    23    21    22   1
    24    22    23  ar
    25    22    27  ar
    26    23    24  ar
    27    24    25  ar
    28    25    26  ar
    29    26    27  ar
    30    28    29  am
    31    29    30   2
    32    29    31   1
    33    31    32  ar
    34    31    36  ar
    35    32    33  ar
    36    33    34  ar
    37    34    35  ar
    38    35    36  ar
    39     1    37   1
    40     2    38   1
    41     3    39   1
    42     4    40   1
    43     5    41   1
    44     7    42   1
    45     7    43   1
    46     8    44   1
    47    12    45   1
    48    15    46   1
    49    15    47   1
    50    16    48   1
    51    16    49   1
    52    18    50   1
    53    19    51   1
    54    20    52   1
    55    21    53   1
    56    21    54   1
    57    23    55   1
    58    24    56   1
    59    25    57   1
    60    26    58   1
    61    27    59   1
    62    28    60   1
    63    32    61   1
    64    33    62   1
    65    34    63   1
    66    35    64   1
    67    36    65   1
@<TRIPOS>SUBSTRUCTURE
     1  KAF      1

