@<TRIPOS>MOLECULE
3bkk_ligand_012
    65    67
SMALL
GAST_HUCK
****
This file was generated by PARSER (from files_GN.cpp)

@<TRIPOS>ATOM
      1 CD1        45.5888   49.7133   44.3579 C.ar        1 KAF      -0.0602
      2 CE1        45.6601   50.7892   45.2581 C.ar        1 KAF      -0.0686
      3 CZ         46.1819   52.0253   44.8384 C.ar        1 KAF      -0.0687
      4 CE2        46.6548   52.1724   43.5222 C.ar        1 KAF      -0.0686
      5 CD2        46.6427   51.0738   42.6389 C.ar        1 KAF      -0.0602
      6 CG         46.1272   49.8217   43.0532 C.ar        1 KAF      -0.0392
      7 CB         46.0731   48.6417   42.1372 C.3         1 KAF       0.0159
      8 CA         46.9528   47.3909   42.5104 C.3         1 KAF       0.1038
      9 C          48.2316   47.2567   41.7747 C.2         1 KAF       0.0621
     10 O          48.7854   48.2648   41.0626 O.co2       1 KAF      -0.5664
     11 OXT        48.8895   46.0733   41.7994 O.co2       1 KAF      -0.5664
     12 N          47.2693   47.3341   43.9144 N.am        1 KAF      -0.2696
     13 CBC        46.7074   46.5648   44.8423 C.2         1 KAF       0.1780
     14 OAA        45.7924   45.8060   44.5458 O.2         1 KAF      -0.3970
     15 CAV        46.9386   46.8770   46.2473 C.3         1 KAF       0.0423
     16 CAW        46.9372   45.6724   47.2272 C.3         1 KAF       0.0204
     17 CBM        46.7986   46.0538   48.7419 C.3         1 KAF       0.1919
     18 OAE        45.4151   46.2648   49.0384 O.3         1 KAF      -0.3627
     19 OAF        47.4413   47.2869   49.0771 O.3         1 KAF      -0.3627
     20 CBL        47.3446   44.9517   49.7110 C.3         1 KAF       0.1045
     21 CAX        48.9196   44.8603   49.7877 C.3         1 KAF       0.0090
     22 CBF        49.5280   45.3288   51.0704 C.ar        1 KAF      -0.0407
     23 CAO        50.6234   46.2269   51.0838 C.ar        1 KAF      -0.0603
     24 CAI        51.2243   46.6169   52.2966 C.ar        1 KAF      -0.0686
     25 CAG        50.7307   46.1241   53.5172 C.ar        1 KAF      -0.0687
     26 CAJ        49.6498   45.2264   53.5233 C.ar        1 KAF      -0.0686
     27 CAP        49.0708   44.8127   52.3091 C.ar        1 KAF      -0.0603
     28 NBA        46.8215   43.6465   49.3936 N.am        1 KAF      -0.2759
     29 CBE        45.6172   43.1519   49.6617 C.2         1 KAF       0.2055
     30 OAC        44.7711   43.8734   50.1797 O.2         1 KAF      -0.3846
     31 CBG        45.3141   41.8148   49.3827 C.ar        1 KAF       0.0499
     32 CAR        46.3317   40.8395   49.2013 C.ar        1 KAF      -0.0419
     33 CAL        46.0148   39.4914   48.9487 C.ar        1 KAF      -0.0562
     34 CAH        44.6727   39.0881   48.8704 C.ar        1 KAF      -0.0575
     35 CAK        43.6489   40.0321   49.0479 C.ar        1 KAF      -0.0562
     36 CAQ        43.9650   41.3796   49.2995 C.ar        1 KAF      -0.0419
     37 H1         45.1458   48.8426   44.6642 H           1 KAF       0.0557
     38 H2         45.3280   50.6673   46.2146 H           1 KAF       0.0599
     39 H3         46.2132   52.8168   45.4873 H           1 KAF       0.0559
     40 H4         47.0214   53.0740   43.2123 H           1 KAF       0.0599
     41 H5         47.0021   51.1982   41.6891 H           1 KAF       0.0557
     42 H6         46.2970   48.9469   41.1111 H           1 KAF       0.0467
     43 H7         45.0268   48.3214   42.1098 H           1 KAF       0.0467
     44 H8         46.3761   46.5095   42.2061 H           1 KAF       0.0749
     45 H9         47.8767   48.0195   44.2403 H           1 KAF       0.1876
     46 H10        46.1566   47.5764   46.5405 H           1 KAF       0.0504
     47 H11        47.9022   47.3832   46.3638 H           1 KAF       0.0504
     48 H12        47.8603   45.1127   47.0580 H           1 KAF       0.0342
     49 H13        46.1070   45.0045   46.9792 H           1 KAF       0.0342
     50 H14        45.1543   47.0716   48.5527 H           1 KAF       0.2128
     51 H15        46.8605   47.9899   48.7214 H           1 KAF       0.2128
     52 H16        46.9758   45.2158   50.7079 H           1 KAF       0.0632
     53 H17        49.3602   45.3966   48.9433 H           1 KAF       0.0450
     54 H18        49.2506   43.8228   49.6718 H           1 KAF       0.0450
     55 H19        51.0128   46.5830   50.2077 H           1 KAF       0.0557
     56 H20        52.0244   47.2521   52.2886 H           1 KAF       0.0599
     57 H21        51.1603   46.4130   54.3989 H           1 KAF       0.0559
     58 H22        49.2860   44.8706   54.4097 H           1 KAF       0.0599
     59 H23        48.3073   44.1316   52.3352 H           1 KAF       0.0557
     60 H24        47.4464   43.0295   48.9819 H           1 KAF       0.1852
     61 H25        47.3206   41.0862   49.2785 H           1 KAF       0.0669
     62 H26        46.7624   38.8036   48.8319 H           1 KAF       0.0629
     63 H27        44.4405   38.1089   48.6905 H           1 KAF       0.0653
     64 H28        42.6709   39.7427   48.9976 H           1 KAF       0.0629
     65 H29        43.1923   42.0408   49.4160 H           1 KAF       0.0669
@<TRIPOS>BOND
     1     1     2  ar
     2     1     6  ar
     3     2     3  ar
     4     3     4  ar
     5     4     5  ar
     6     5     6  ar
     7     6     7   1
     8     7     8   1
     9     8     9   1
    10     8    12   1
    11     9    10  ar
    12     9    11  ar
    13    12    13  am
    14    13    14   2
    15    13    15   1
    16    15    16   1
    17    16    17   1
    18    17    18   1
    19    17    19   1
    20    17    20   1
    21    20    21   1
    22    20    28   1
    23    21    22   1
    24    22    23  ar
    25    22    27  ar
    26    23    24  ar
    27    24    25  ar
    28    25    26  ar
    29    26    27  ar
    30    28    29  am
    31    29    30   2
    32    29    31   1
    33    31    32  ar
    34    31    36  ar
    35    32    33  ar
    36    33    34  ar
    37    34    35  ar
    38    35    36  ar
    39     1    37   1
    40     2    38   1
    41     3    39   1
    42     4    40   1
    43     5    41   1
    44     7    42   1
    45     7    43   1
    46     8    44   1
    47    12    45   1
    48    15    46   1
    49    15    47   1
    50    16    48   1
    51    16    49   1
    52    18    50   1
    53    19    51   1
    54    20    52   1
    55    21    53   1
    56    21    54   1
    57    23    55   1
    58    24    56   1
    59    25    57   1
    60    26    58   1
    61    27    59   1
    62    28    60   1
    63    32    61   1
    64    33    62   1
    65    34    63   1
    66    35    64   1
    67    36    65   1
@<TRIPOS>SUBSTRUCTURE
     1  KAF      1

