@<TRIPOS>MOLECULE
3bkk_ligand_033
    65    67
SMALL
GAST_HUCK
****
This file was generated by PARSER (from files_GN.cpp)

@<TRIPOS>ATOM
      1 CD1        46.1253   36.3071   50.2657 C.ar        1 KAF      -0.0602
      2 CE1        46.0481   34.9913   49.7728 C.ar        1 KAF      -0.0686
      3 CZ         45.4479   34.7415   48.5245 C.ar        1 KAF      -0.0687
      4 CE2        44.9188   35.8071   47.7731 C.ar        1 KAF      -0.0686
      5 CD2        44.9988   37.1218   48.2665 C.ar        1 KAF      -0.0602
      6 CG         45.5979   37.3912   49.5222 C.ar        1 KAF      -0.0392
      7 CB         45.6898   38.7888   50.0248 C.3         1 KAF       0.0159
      8 CA         44.3905   39.2946   50.7374 C.3         1 KAF       0.1038
      9 C          44.3664   38.9194   52.1669 C.2         1 KAF       0.0621
     10 O          43.3251   38.2197   52.6824 O.co2       1 KAF      -0.5664
     11 OXT        45.3144   39.3729   53.0183 O.co2       1 KAF      -0.5664
     12 N          44.3272   40.7284   50.6544 N.am        1 KAF      -0.2696
     13 CBC        43.3022   41.4817   50.2694 C.2         1 KAF       0.1780
     14 OAA        42.1815   40.9904   50.1075 O.2         1 KAF      -0.3970
     15 CAV        43.5033   42.8966   49.9944 C.3         1 KAF       0.0423
     16 CAW        44.6677   43.1182   48.9686 C.3         1 KAF       0.0204
     17 CBM        44.9168   44.5753   48.4636 C.3         1 KAF       0.1919
     18 OAE        44.1599   45.5149   49.2503 O.3         1 KAF      -0.3627
     19 OAF        44.4130   44.7032   47.1212 O.3         1 KAF      -0.3627
     20 CBL        46.4412   45.0006   48.4565 C.3         1 KAF       0.1045
     21 CAX        47.4950   43.8857   48.1111 C.3         1 KAF       0.0090
     22 CBF        48.2014   43.2197   49.2506 C.ar        1 KAF      -0.0407
     23 CAO        49.1181   43.9446   50.0533 C.ar        1 KAF      -0.0603
     24 CAI        49.7308   43.3467   51.1758 C.ar        1 KAF      -0.0686
     25 CAG        49.4563   42.0055   51.5002 C.ar        1 KAF      -0.0687
     26 CAJ        48.5874   41.2586   50.6845 C.ar        1 KAF      -0.0686
     27 CAP        47.9705   41.8583   49.5643 C.ar        1 KAF      -0.0603
     28 NBA        46.7697   45.6197   49.7126 N.am        1 KAF      -0.2759
     29 CBE        47.2924   46.8232   49.9365 C.2         1 KAF       0.2055
     30 OAC        47.5739   47.5329   48.9779 O.2         1 KAF      -0.3846
     31 CBG        47.5661   47.2792   51.2363 C.ar        1 KAF       0.0499
     32 CAR        47.4000   46.4493   52.3790 C.ar        1 KAF      -0.0419
     33 CAL        47.6362   46.9288   53.6803 C.ar        1 KAF      -0.0562
     34 CAH        48.0667   48.2501   53.8739 C.ar        1 KAF      -0.0575
     35 CAK        48.2605   49.0920   52.7656 C.ar        1 KAF      -0.0562
     36 CAQ        48.0198   48.6097   51.4641 C.ar        1 KAF      -0.0419
     37 H1         46.5707   36.4730   51.1718 H           1 KAF       0.0557
     38 H2         46.4293   34.2169   50.3201 H           1 KAF       0.0599
     39 H3         45.3946   33.7871   48.1626 H           1 KAF       0.0559
     40 H4         44.4841   35.6263   46.8671 H           1 KAF       0.0599
     41 H5         44.6281   37.8895   47.7002 H           1 KAF       0.0557
     42 H6         45.9065   39.4380   49.1623 H           1 KAF       0.0467
     43 H7         46.5476   38.8878   50.6955 H           1 KAF       0.0467
     44 H8         43.5204   38.8451   50.2455 H           1 KAF       0.0749
     45 H9         45.1586   41.2002   50.8327 H           1 KAF       0.1876
     46 H10        43.7630   43.3966   50.9341 H           1 KAF       0.0504
     47 H11        42.5770   43.3505   49.6202 H           1 KAF       0.0504
     48 H12        44.4989   42.4905   48.0817 H           1 KAF       0.0342
     49 H13        45.5790   42.7672   49.4813 H           1 KAF       0.0342
     50 H14        44.3564   46.3994   48.8620 H           1 KAF       0.2128
     51 H15        44.4288   45.6690   46.9267 H           1 KAF       0.2128
     52 H16        46.5437   45.7523   47.6658 H           1 KAF       0.0632
     53 H17        48.2756   44.3186   47.4693 H           1 KAF       0.0450
     54 H18        47.0073   43.1324   47.4893 H           1 KAF       0.0450
     55 H19        49.3479   44.9183   49.8306 H           1 KAF       0.0557
     56 H20        50.3710   43.8926   51.7600 H           1 KAF       0.0599
     57 H21        49.9006   41.5723   52.3136 H           1 KAF       0.0559
     58 H22        48.3914   40.2814   50.9152 H           1 KAF       0.0599
     59 H23        47.3359   41.2918   48.9926 H           1 KAF       0.0557
     60 H24        46.5818   45.0862   50.4977 H           1 KAF       0.1852
     61 H25        47.0886   45.4821   52.2892 H           1 KAF       0.0669
     62 H26        47.4892   46.3155   54.4871 H           1 KAF       0.0629
     63 H27        48.2346   48.5978   54.8227 H           1 KAF       0.0653
     64 H28        48.5713   50.0561   52.9079 H           1 KAF       0.0629
     65 H29        48.1567   49.2588   50.6847 H           1 KAF       0.0669
@<TRIPOS>BOND
     1     1     2  ar
     2     1     6  ar
     3     2     3  ar
     4     3     4  ar
     5     4     5  ar
     6     5     6  ar
     7     6     7   1
     8     7     8   1
     9     8     9   1
    10     8    12   1
    11     9    10  ar
    12     9    11  ar
    13    12    13  am
    14    13    14   2
    15    13    15   1
    16    15    16   1
    17    16    17   1
    18    17    18   1
    19    17    19   1
    20    17    20   1
    21    20    21   1
    22    20    28   1
    23    21    22   1
    24    22    23  ar
    25    22    27  ar
    26    23    24  ar
    27    24    25  ar
    28    25    26  ar
    29    26    27  ar
    30    28    29  am
    31    29    30   2
    32    29    31   1
    33    31    32  ar
    34    31    36  ar
    35    32    33  ar
    36    33    34  ar
    37    34    35  ar
    38    35    36  ar
    39     1    37   1
    40     2    38   1
    41     3    39   1
    42     4    40   1
    43     5    41   1
    44     7    42   1
    45     7    43   1
    46     8    44   1
    47    12    45   1
    48    15    46   1
    49    15    47   1
    50    16    48   1
    51    16    49   1
    52    18    50   1
    53    19    51   1
    54    20    52   1
    55    21    53   1
    56    21    54   1
    57    23    55   1
    58    24    56   1
    59    25    57   1
    60    26    58   1
    61    27    59   1
    62    28    60   1
    63    32    61   1
    64    33    62   1
    65    34    63   1
    66    35    64   1
    67    36    65   1
@<TRIPOS>SUBSTRUCTURE
     1  KAF      1

