@<TRIPOS>MOLECULE
3bkk_ligand_022
    65    67
SMALL
GAST_HUCK
****
This file was generated by PARSER (from files_GN.cpp)

@<TRIPOS>ATOM
      1 CD1        46.6357   51.6716   39.7181 C.ar        1 KAF      -0.0602
      2 CE1        46.0456   52.1539   38.5339 C.ar        1 KAF      -0.0686
      3 CZ         44.6475   52.1671   38.3996 C.ar        1 KAF      -0.0687
      4 CE2        43.8360   51.6938   39.4453 C.ar        1 KAF      -0.0686
      5 CD2        44.4258   51.2057   40.6276 C.ar        1 KAF      -0.0602
      6 CG         45.8323   51.1988   40.7838 C.ar        1 KAF      -0.0392
      7 CB         46.4397   50.7464   42.0678 C.3         1 KAF       0.0159
      8 CA         46.8147   49.2212   42.0967 C.3         1 KAF       0.1038
      9 C          48.2847   49.0345   42.0086 C.2         1 KAF       0.0621
     10 O          49.0999   49.4024   43.0191 O.co2       1 KAF      -0.5664
     11 OXT        48.8510   48.4249   40.9382 O.co2       1 KAF      -0.5664
     12 N          46.2520   48.5466   43.2469 N.am        1 KAF      -0.2696
     13 CBC        46.3444   47.2466   43.5088 C.2         1 KAF       0.1780
     14 OAA        47.0614   46.5245   42.8263 O.2         1 KAF      -0.3970
     15 CAV        45.4662   46.6119   44.4906 C.3         1 KAF       0.0423
     16 CAW        45.6774   47.0304   45.9744 C.3         1 KAF       0.0204
     17 CBM        44.9855   46.0895   47.0411 C.3         1 KAF       0.1919
     18 OAE        43.8554   45.4189   46.4616 O.3         1 KAF      -0.3627
     19 OAF        44.3638   46.9203   48.0323 O.3         1 KAF      -0.3627
     20 CBL        45.9803   45.0750   47.7519 C.3         1 KAF       0.1045
     21 CAX        45.4837   43.5922   47.8423 C.3         1 KAF       0.0090
     22 CBF        46.2610   42.6161   48.6786 C.ar        1 KAF      -0.0407
     23 CAO        45.6073   41.4729   49.2013 C.ar        1 KAF      -0.0603
     24 CAI        46.2661   40.5871   50.0745 C.ar        1 KAF      -0.0686
     25 CAG        47.6066   40.8196   50.4266 C.ar        1 KAF      -0.0687
     26 CAJ        48.2944   41.9154   49.8748 C.ar        1 KAF      -0.0686
     27 CAP        47.6301   42.7947   48.9961 C.ar        1 KAF      -0.0603
     28 NBA        46.2969   45.5110   49.0878 N.am        1 KAF      -0.2759
     29 CBE        47.1286   46.4744   49.4631 C.2         1 KAF       0.2055
     30 OAC        47.6677   47.1607   48.6016 O.2         1 KAF      -0.3846
     31 CBG        47.3768   46.7305   50.8189 C.ar        1 KAF       0.0499
     32 CAR        47.0318   45.7977   51.8364 C.ar        1 KAF      -0.0419
     33 CAL        47.2710   46.0729   53.1956 C.ar        1 KAF      -0.0562
     34 CAH        47.8741   47.2832   53.5729 C.ar        1 KAF      -0.0575
     35 CAK        48.2378   48.2178   52.5893 C.ar        1 KAF      -0.0562
     36 CAQ        47.9903   47.9436   51.2315 C.ar        1 KAF      -0.0419
     37 H1         47.6545   51.6772   39.8002 H           1 KAF       0.0557
     38 H2         46.6361   52.5046   37.7773 H           1 KAF       0.0599
     39 H3         44.2195   52.5260   37.5438 H           1 KAF       0.0559
     40 H4         42.8185   51.7121   39.3538 H           1 KAF       0.0599
     41 H5         43.8198   50.8742   41.3836 H           1 KAF       0.0557
     42 H6         45.7287   50.9818   42.8619 H           1 KAF       0.0467
     43 H7         47.3155   51.3641   42.2890 H           1 KAF       0.0467
     44 H8         46.3747   48.7444   41.2175 H           1 KAF       0.0749
     45 H9         45.6555   49.0628   43.8094 H           1 KAF       0.1876
     46 H10        45.5733   45.5219   44.4269 H           1 KAF       0.0504
     47 H11        44.4350   46.8447   44.2103 H           1 KAF       0.0504
     48 H12        45.2966   48.0510   46.0804 H           1 KAF       0.0342
     49 H13        46.7496   47.0925   46.1708 H           1 KAF       0.0342
     50 H14        43.1707   46.1165   46.3234 H           1 KAF       0.2128
     51 H15        43.6763   47.4288   47.5544 H           1 KAF       0.2128
     52 H16        46.9063   45.0199   47.1757 H           1 KAF       0.0632
     53 H17        45.4250   43.1757   46.8348 H           1 KAF       0.0450
     54 H18        44.4677   43.6221   48.2380 H           1 KAF       0.0450
     55 H19        44.6269   41.2854   48.9696 H           1 KAF       0.0557
     56 H20        45.7676   39.7831   50.4626 H           1 KAF       0.0599
     57 H21        48.0819   40.1896   51.0716 H           1 KAF       0.0559
     58 H22        49.2729   42.0799   50.1212 H           1 KAF       0.0599
     59 H23        48.1559   43.5855   48.6184 H           1 KAF       0.0557
     60 H24        45.8453   45.0355   49.7994 H           1 KAF       0.1852
     61 H25        46.6104   44.8957   51.6049 H           1 KAF       0.0669
     62 H26        47.0125   45.3891   53.9106 H           1 KAF       0.0629
     63 H27        48.0483   47.4851   54.5592 H           1 KAF       0.0653
     64 H28        48.6838   49.0969   52.8597 H           1 KAF       0.0629
     65 H29        48.2569   48.6533   50.5440 H           1 KAF       0.0669
@<TRIPOS>BOND
     1     1     2  ar
     2     1     6  ar
     3     2     3  ar
     4     3     4  ar
     5     4     5  ar
     6     5     6  ar
     7     6     7   1
     8     7     8   1
     9     8     9   1
    10     8    12   1
    11     9    10  ar
    12     9    11  ar
    13    12    13  am
    14    13    14   2
    15    13    15   1
    16    15    16   1
    17    16    17   1
    18    17    18   1
    19    17    19   1
    20    17    20   1
    21    20    21   1
    22    20    28   1
    23    21    22   1
    24    22    23  ar
    25    22    27  ar
    26    23    24  ar
    27    24    25  ar
    28    25    26  ar
    29    26    27  ar
    30    28    29  am
    31    29    30   2
    32    29    31   1
    33    31    32  ar
    34    31    36  ar
    35    32    33  ar
    36    33    34  ar
    37    34    35  ar
    38    35    36  ar
    39     1    37   1
    40     2    38   1
    41     3    39   1
    42     4    40   1
    43     5    41   1
    44     7    42   1
    45     7    43   1
    46     8    44   1
    47    12    45   1
    48    15    46   1
    49    15    47   1
    50    16    48   1
    51    16    49   1
    52    18    50   1
    53    19    51   1
    54    20    52   1
    55    21    53   1
    56    21    54   1
    57    23    55   1
    58    24    56   1
    59    25    57   1
    60    26    58   1
    61    27    59   1
    62    28    60   1
    63    32    61   1
    64    33    62   1
    65    34    63   1
    66    35    64   1
    67    36    65   1
@<TRIPOS>SUBSTRUCTURE
     1  KAF      1

