@<TRIPOS>MOLECULE
3bkk_ligand_028
    65    67
SMALL
GAST_HUCK
****
This file was generated by PARSER (from files_GN.cpp)

@<TRIPOS>ATOM
      1 CD1        45.3896   49.9709   44.9198 C.ar        1 KAF      -0.0602
      2 CE1        45.7029   51.3403   44.9075 C.ar        1 KAF      -0.0686
      3 CZ         45.1121   52.1883   43.9565 C.ar        1 KAF      -0.0687
      4 CE2        44.2112   51.6644   43.0136 C.ar        1 KAF      -0.0686
      5 CD2        43.9300   50.2868   43.0008 C.ar        1 KAF      -0.0602
      6 CG         44.5278   49.4126   43.9434 C.ar        1 KAF      -0.0392
      7 CB         44.2793   47.9380   43.8835 C.3         1 KAF       0.0159
      8 CA         45.5347   47.0084   43.7886 C.3         1 KAF       0.1038
      9 C          46.5065   47.3762   42.7320 C.2         1 KAF       0.0621
     10 O          46.9700   48.6394   42.6148 O.co2       1 KAF      -0.5664
     11 OXT        47.2489   46.4093   42.1475 O.co2       1 KAF      -0.5664
     12 N          46.2262   46.9030   45.0480 N.am        1 KAF      -0.2696
     13 CBC        45.9074   46.0864   46.0480 C.2         1 KAF       0.1780
     14 OAA        45.0266   45.2517   45.8975 O.2         1 KAF      -0.3970
     15 CAV        46.6351   46.1277   47.3095 C.3         1 KAF       0.0423
     16 CAW        45.7454   46.1298   48.5972 C.3         1 KAF       0.0204
     17 CBM        45.4473   44.7360   49.2473 C.3         1 KAF       0.1919
     18 OAE        44.9771   43.8647   48.2250 O.3         1 KAF      -0.3627
     19 OAF        44.3430   44.8940   50.1526 O.3         1 KAF      -0.3627
     20 CBL        46.6496   44.0650   50.0142 C.3         1 KAF       0.1045
     21 CAX        46.2620   42.7987   50.8560 C.3         1 KAF       0.0090
     22 CBF        45.5285   41.7450   50.1014 C.ar        1 KAF      -0.0407
     23 CAO        44.1354   41.5572   50.2798 C.ar        1 KAF      -0.0603
     24 CAI        43.4238   40.6468   49.4767 C.ar        1 KAF      -0.0686
     25 CAG        44.1010   39.8938   48.4995 C.ar        1 KAF      -0.0687
     26 CAJ        45.4889   40.0437   48.3353 C.ar        1 KAF      -0.0686
     27 CAP        46.1977   40.9650   49.1288 C.ar        1 KAF      -0.0603
     28 NBA        47.2298   45.0281   50.9233 N.am        1 KAF      -0.2759
     29 CBE        48.4959   45.1176   51.3137 C.2         1 KAF       0.2055
     30 OAC        49.3095   44.3192   50.8576 O.2         1 KAF      -0.3846
     31 CBG        48.9212   46.1038   52.2217 C.ar        1 KAF       0.0499
     32 CAR        48.0060   46.8775   52.9855 C.ar        1 KAF      -0.0419
     33 CAL        48.4471   47.8585   53.8933 C.ar        1 KAF      -0.0562
     34 CAH        49.8221   48.0946   54.0601 C.ar        1 KAF      -0.0575
     35 CAK        50.7502   47.3455   53.3220 C.ar        1 KAF      -0.0562
     36 CAQ        50.3071   46.3627   52.4178 C.ar        1 KAF      -0.0419
     37 H1         45.8171   49.3824   45.6344 H           1 KAF       0.0557
     38 H2         46.3647   51.7195   45.5891 H           1 KAF       0.0599
     39 H3         45.3390   53.1868   43.9478 H           1 KAF       0.0559
     40 H4         43.7720   52.2827   42.3280 H           1 KAF       0.0599
     41 H5         43.2806   49.9265   42.2984 H           1 KAF       0.0557
     42 H6         43.6391   47.7029   43.0284 H           1 KAF       0.0467
     43 H7         43.7110   47.6668   44.7736 H           1 KAF       0.0467
     44 H8         45.1684   46.0122   43.5182 H           1 KAF       0.0749
     45 H9         46.9674   47.5235   45.1939 H           1 KAF       0.1876
     46 H10        47.2608   47.0310   47.3319 H           1 KAF       0.0504
     47 H11        47.3253   45.2760   47.3319 H           1 KAF       0.0504
     48 H12        44.7860   46.6063   48.3525 H           1 KAF       0.0342
     49 H13        46.2101   46.7722   49.3415 H           1 KAF       0.0342
     50 H14        44.0439   44.1154   48.0713 H           1 KAF       0.2128
     51 H15        44.7338   45.0706   51.0277 H           1 KAF       0.2128
     52 H16        47.3851   43.7693   49.2712 H           1 KAF       0.0632
     53 H17        45.6635   43.1205   51.7161 H           1 KAF       0.0450
     54 H18        47.1665   42.3505   51.2689 H           1 KAF       0.0450
     55 H19        43.6223   42.1114   50.9683 H           1 KAF       0.0557
     56 H20        42.4133   40.5429   49.5933 H           1 KAF       0.0599
     57 H21        43.5812   39.2457   47.9065 H           1 KAF       0.0559
     58 H22        45.9811   39.4932   47.6263 H           1 KAF       0.0599
     59 H23        47.2023   41.0777   48.9820 H           1 KAF       0.0557
     60 H24        46.6219   45.6864   51.2803 H           1 KAF       0.1852
     61 H25        46.9962   46.7292   52.9065 H           1 KAF       0.0669
     62 H26        47.7698   48.4002   54.4370 H           1 KAF       0.0629
     63 H27        50.1449   48.8085   54.7191 H           1 KAF       0.0653
     64 H28        51.7539   47.5149   53.4423 H           1 KAF       0.0629
     65 H29        51.0151   45.8424   51.8954 H           1 KAF       0.0669
@<TRIPOS>BOND
     1     1     2  ar
     2     1     6  ar
     3     2     3  ar
     4     3     4  ar
     5     4     5  ar
     6     5     6  ar
     7     6     7   1
     8     7     8   1
     9     8     9   1
    10     8    12   1
    11     9    10  ar
    12     9    11  ar
    13    12    13  am
    14    13    14   2
    15    13    15   1
    16    15    16   1
    17    16    17   1
    18    17    18   1
    19    17    19   1
    20    17    20   1
    21    20    21   1
    22    20    28   1
    23    21    22   1
    24    22    23  ar
    25    22    27  ar
    26    23    24  ar
    27    24    25  ar
    28    25    26  ar
    29    26    27  ar
    30    28    29  am
    31    29    30   2
    32    29    31   1
    33    31    32  ar
    34    31    36  ar
    35    32    33  ar
    36    33    34  ar
    37    34    35  ar
    38    35    36  ar
    39     1    37   1
    40     2    38   1
    41     3    39   1
    42     4    40   1
    43     5    41   1
    44     7    42   1
    45     7    43   1
    46     8    44   1
    47    12    45   1
    48    15    46   1
    49    15    47   1
    50    16    48   1
    51    16    49   1
    52    18    50   1
    53    19    51   1
    54    20    52   1
    55    21    53   1
    56    21    54   1
    57    23    55   1
    58    24    56   1
    59    25    57   1
    60    26    58   1
    61    27    59   1
    62    28    60   1
    63    32    61   1
    64    33    62   1
    65    34    63   1
    66    35    64   1
    67    36    65   1
@<TRIPOS>SUBSTRUCTURE
     1  KAF      1

