@<TRIPOS>MOLECULE
3bkk_ligand_017
    65    67
SMALL
GAST_HUCK
****
This file was generated by PARSER (from files_GN.cpp)

@<TRIPOS>ATOM
      1 CD1        42.7955   46.1571   40.1788 C.ar        1 KAF      -0.0602
      2 CE1        41.6047   46.8787   40.3980 C.ar        1 KAF      -0.0686
      3 CZ         41.6454   48.2704   40.5692 C.ar        1 KAF      -0.0687
      4 CE2        42.8768   48.9437   40.5162 C.ar        1 KAF      -0.0686
      5 CD2        44.0657   48.2206   40.2977 C.ar        1 KAF      -0.0602
      6 CG         44.0533   46.8080   40.1458 C.ar        1 KAF      -0.0392
      7 CB         45.2969   45.9976   39.9413 C.3         1 KAF       0.0159
      8 CA         46.6393   46.4537   40.6095 C.3         1 KAF       0.1038
      9 C          47.3648   47.5568   39.9257 C.2         1 KAF       0.0621
     10 O          48.4147   48.1536   40.5452 O.co2       1 KAF      -0.5664
     11 OXT        47.1111   47.8796   38.6343 O.co2       1 KAF      -0.5664
     12 N          46.3907   46.7866   41.9779 N.am        1 KAF      -0.2696
     13 CBC        47.2875   46.8981   42.9564 C.2         1 KAF       0.1780
     14 OAA        48.4904   46.8095   42.7095 O.2         1 KAF      -0.3970
     15 CAV        46.8299   47.1437   44.3105 C.3         1 KAF       0.0423
     16 CAW        45.5694   46.3039   44.6879 C.3         1 KAF       0.0204
     17 CBM        45.1689   46.3307   46.1983 C.3         1 KAF       0.1919
     18 OAE        43.9026   45.6543   46.2458 O.3         1 KAF      -0.3627
     19 OAF        44.9436   47.7015   46.5488 O.3         1 KAF      -0.3627
     20 CBL        46.2261   45.6392   47.1570 C.3         1 KAF       0.1045
     21 CAX        45.6894   44.3780   47.9114 C.3         1 KAF       0.0090
     22 CBF        46.6538   43.8070   48.8908 C.ar        1 KAF      -0.0407
     23 CAO        47.7024   42.9544   48.4676 C.ar        1 KAF      -0.0603
     24 CAI        48.6324   42.4448   49.3938 C.ar        1 KAF      -0.0686
     25 CAG        48.5368   42.7908   50.7553 C.ar        1 KAF      -0.0687
     26 CAJ        47.5001   43.6368   51.1902 C.ar        1 KAF      -0.0686
     27 CAP        46.5636   44.1339   50.2667 C.ar        1 KAF      -0.0603
     28 NBA        46.7646   46.5598   48.1271 N.am        1 KAF      -0.2759
     29 CBE        47.9764   46.4985   48.6909 C.2         1 KAF       0.2055
     30 OAC        48.7959   45.6884   48.2648 O.2         1 KAF      -0.3846
     31 CBG        48.2776   47.2108   49.8495 C.ar        1 KAF       0.0499
     32 CAR        47.6588   48.4517   50.1487 C.ar        1 KAF      -0.0419
     33 CAL        47.9263   49.1320   51.3536 C.ar        1 KAF      -0.0562
     34 CAH        48.8187   48.5843   52.2901 C.ar        1 KAF      -0.0575
     35 CAK        49.4588   47.3697   52.0123 C.ar        1 KAF      -0.0562
     36 CAQ        49.1956   46.6913   50.8051 C.ar        1 KAF      -0.0419
     37 H1         42.7366   45.1452   40.0539 H           1 KAF       0.0557
     38 H2         40.7091   46.3844   40.4269 H           1 KAF       0.0599
     39 H3         40.7806   48.7914   40.7332 H           1 KAF       0.0559
     40 H4         42.9069   49.9587   40.6383 H           1 KAF       0.0599
     41 H5         44.9432   48.7480   40.2663 H           1 KAF       0.0557
     42 H6         45.4499   45.8793   38.8654 H           1 KAF       0.0467
     43 H7         45.0982   44.9934   40.3319 H           1 KAF       0.0467
     44 H8         47.3078   45.5800   40.5699 H           1 KAF       0.0749
     45 H9         45.4618   46.9032   42.2357 H           1 KAF       0.1876
     46 H10        46.5852   48.2052   44.4006 H           1 KAF       0.0504
     47 H11        47.6299   46.9323   45.0258 H           1 KAF       0.0504
     48 H12        45.7064   45.2632   44.3804 H           1 KAF       0.0342
     49 H13        44.7294   46.6944   44.1009 H           1 KAF       0.0342
     50 H14        43.2626   46.3025   46.6156 H           1 KAF       0.2128
     51 H15        43.9908   47.7867   46.7717 H           1 KAF       0.2128
     52 H16        47.0408   45.2691   46.5299 H           1 KAF       0.0632
     53 H17        45.4396   43.5996   47.1808 H           1 KAF       0.0450
     54 H18        44.7495   44.6419   48.4211 H           1 KAF       0.0450
     55 H19        47.7911   42.6951   47.4809 H           1 KAF       0.0557
     56 H20        49.3956   41.8382   49.0730 H           1 KAF       0.0599
     57 H21        49.2187   42.4266   51.4234 H           1 KAF       0.0559
     58 H22        47.4373   43.9010   52.1773 H           1 KAF       0.0599
     59 H23        45.8259   44.7579   50.6050 H           1 KAF       0.0557
     60 H24        46.1401   47.1974   48.5103 H           1 KAF       0.1852
     61 H25        47.0149   48.8875   49.4870 H           1 KAF       0.0669
     62 H26        47.4693   50.0257   51.5486 H           1 KAF       0.0629
     63 H27        49.0047   49.0793   53.1708 H           1 KAF       0.0653
     64 H28        50.1181   46.9754   52.6902 H           1 KAF       0.0629
     65 H29        49.6692   45.8010   50.6452 H           1 KAF       0.0669
@<TRIPOS>BOND
     1     1     2  ar
     2     1     6  ar
     3     2     3  ar
     4     3     4  ar
     5     4     5  ar
     6     5     6  ar
     7     6     7   1
     8     7     8   1
     9     8     9   1
    10     8    12   1
    11     9    10  ar
    12     9    11  ar
    13    12    13  am
    14    13    14   2
    15    13    15   1
    16    15    16   1
    17    16    17   1
    18    17    18   1
    19    17    19   1
    20    17    20   1
    21    20    21   1
    22    20    28   1
    23    21    22   1
    24    22    23  ar
    25    22    27  ar
    26    23    24  ar
    27    24    25  ar
    28    25    26  ar
    29    26    27  ar
    30    28    29  am
    31    29    30   2
    32    29    31   1
    33    31    32  ar
    34    31    36  ar
    35    32    33  ar
    36    33    34  ar
    37    34    35  ar
    38    35    36  ar
    39     1    37   1
    40     2    38   1
    41     3    39   1
    42     4    40   1
    43     5    41   1
    44     7    42   1
    45     7    43   1
    46     8    44   1
    47    12    45   1
    48    15    46   1
    49    15    47   1
    50    16    48   1
    51    16    49   1
    52    18    50   1
    53    19    51   1
    54    20    52   1
    55    21    53   1
    56    21    54   1
    57    23    55   1
    58    24    56   1
    59    25    57   1
    60    26    58   1
    61    27    59   1
    62    28    60   1
    63    32    61   1
    64    33    62   1
    65    34    63   1
    66    35    64   1
    67    36    65   1
@<TRIPOS>SUBSTRUCTURE
     1  KAF      1

