@<TRIPOS>MOLECULE
3bkk_ligand_027
    65    67
SMALL
GAST_HUCK
****
This file was generated by PARSER (from files_GN.cpp)

@<TRIPOS>ATOM
      1 CD1        43.8457   47.6356   43.2178 C.ar        1 KAF      -0.0602
      2 CE1        42.8805   48.4512   43.8396 C.ar        1 KAF      -0.0686
      3 CZ         43.2487   49.2807   44.9125 C.ar        1 KAF      -0.0687
      4 CE2        44.5802   49.3041   45.3592 C.ar        1 KAF      -0.0686
      5 CD2        45.5457   48.5031   44.7260 C.ar        1 KAF      -0.0602
      6 CG         45.1955   47.6643   43.6416 C.ar        1 KAF      -0.0392
      7 CB         46.2331   46.8384   42.9596 C.3         1 KAF       0.0159
      8 CA         46.6806   47.4211   41.5819 C.3         1 KAF       0.1038
      9 C          48.1054   47.1312   41.3231 C.2         1 KAF       0.0621
     10 O          48.6276   45.9280   41.6630 O.co2       1 KAF      -0.5664
     11 OXT        48.9271   48.1137   40.8947 O.co2       1 KAF      -0.5664
     12 N          45.8892   46.8912   40.5064 N.am        1 KAF      -0.2696
     13 CBC        45.7789   47.3933   39.2809 C.2         1 KAF       0.1780
     14 OAA        46.4376   48.3660   38.9314 O.2         1 KAF      -0.3970
     15 CAV        44.7951   46.8304   38.3707 C.3         1 KAF       0.0423
     16 CAW        43.4338   46.4973   39.0682 C.3         1 KAF       0.0204
     17 CBM        42.1421   47.0503   38.3832 C.3         1 KAF       0.1919
     18 OAE        41.0832   46.8771   39.3325 O.3         1 KAF      -0.3627
     19 OAF        41.8324   46.1570   37.3084 O.3         1 KAF      -0.3627
     20 CBL        42.1417   48.5841   37.9509 C.3         1 KAF       0.1045
     21 CAX        42.2035   48.8631   36.4037 C.3         1 KAF       0.0090
     22 CBF        40.8831   49.0092   35.7113 C.ar        1 KAF      -0.0407
     23 CAO        39.8741   48.0213   35.8392 C.ar        1 KAF      -0.0603
     24 CAI        38.6483   48.1426   35.1550 C.ar        1 KAF      -0.0686
     25 CAG        38.4082   49.2553   34.3295 C.ar        1 KAF      -0.0687
     26 CAJ        39.3942   50.2483   34.1986 C.ar        1 KAF      -0.0686
     27 CAP        40.6191   50.1294   34.8832 C.ar        1 KAF      -0.0603
     28 NBA        43.1897   49.3414   38.6061 N.am        1 KAF      -0.2759
     29 CBE        43.2232   49.7697   39.8682 C.2         1 KAF       0.2055
     30 OAC        42.2707   49.4984   40.5958 O.2         1 KAF      -0.3846
     31 CBG        44.3471   50.4215   40.4053 C.ar        1 KAF       0.0499
     32 CAR        45.4570   50.8047   39.6026 C.ar        1 KAF      -0.0419
     33 CAL        46.5979   51.4042   40.1690 C.ar        1 KAF      -0.0562
     34 CAH        46.6657   51.6264   41.5537 C.ar        1 KAF      -0.0575
     35 CAK        45.5772   51.2761   42.3688 C.ar        1 KAF      -0.0562
     36 CAQ        44.4332   50.6867   41.7994 C.ar        1 KAF      -0.0419
     37 H1         43.5571   47.0210   42.4550 H           1 KAF       0.0557
     38 H2         41.9102   48.4310   43.5202 H           1 KAF       0.0599
     39 H3         42.5473   49.8677   45.3671 H           1 KAF       0.0559
     40 H4         44.8529   49.9082   46.1374 H           1 KAF       0.0599
     41 H5         46.5110   48.5433   45.0566 H           1 KAF       0.0557
     42 H6         45.8484   45.8224   42.8357 H           1 KAF       0.0467
     43 H7         47.1087   46.7523   43.6143 H           1 KAF       0.0467
     44 H8         46.5476   48.5072   41.6090 H           1 KAF       0.0749
     45 H9         45.3237   46.1330   40.7201 H           1 KAF       0.1876
     46 H10        45.2218   45.9123   37.9498 H           1 KAF       0.0504
     47 H11        44.6296   47.5135   37.5290 H           1 KAF       0.0504
     48 H12        43.4285   46.8503   40.0993 H           1 KAF       0.0342
     49 H13        43.3583   45.4051   39.1346 H           1 KAF       0.0342
     50 H14        40.9184   45.9111   39.4080 H           1 KAF       0.2128
     51 H15        41.7243   45.2748   37.7268 H           1 KAF       0.2128
     52 H16        41.1991   49.0369   38.2898 H           1 KAF       0.0632
     53 H17        42.7727   48.0770   35.9043 H           1 KAF       0.0450
     54 H18        42.7844   49.7765   36.2326 H           1 KAF       0.0450
     55 H19        40.0131   47.2070   36.4438 H           1 KAF       0.0557
     56 H20        37.9295   47.4209   35.2631 H           1 KAF       0.0599
     57 H21        37.5174   49.3431   33.8291 H           1 KAF       0.0559
     58 H22        39.2215   51.0557   33.5971 H           1 KAF       0.0599
     59 H23        41.3185   50.8657   34.7673 H           1 KAF       0.0557
     60 H24        43.9537   49.5598   38.0549 H           1 KAF       0.1852
     61 H25        45.4484   50.6688   38.5893 H           1 KAF       0.0669
     62 H26        47.3860   51.6708   39.5745 H           1 KAF       0.0629
     63 H27        47.4988   52.0533   41.9681 H           1 KAF       0.0653
     64 H28        45.6169   51.4464   43.3757 H           1 KAF       0.0629
     65 H29        43.6608   50.4463   42.4274 H           1 KAF       0.0669
@<TRIPOS>BOND
     1     1     2  ar
     2     1     6  ar
     3     2     3  ar
     4     3     4  ar
     5     4     5  ar
     6     5     6  ar
     7     6     7   1
     8     7     8   1
     9     8     9   1
    10     8    12   1
    11     9    10  ar
    12     9    11  ar
    13    12    13  am
    14    13    14   2
    15    13    15   1
    16    15    16   1
    17    16    17   1
    18    17    18   1
    19    17    19   1
    20    17    20   1
    21    20    21   1
    22    20    28   1
    23    21    22   1
    24    22    23  ar
    25    22    27  ar
    26    23    24  ar
    27    24    25  ar
    28    25    26  ar
    29    26    27  ar
    30    28    29  am
    31    29    30   2
    32    29    31   1
    33    31    32  ar
    34    31    36  ar
    35    32    33  ar
    36    33    34  ar
    37    34    35  ar
    38    35    36  ar
    39     1    37   1
    40     2    38   1
    41     3    39   1
    42     4    40   1
    43     5    41   1
    44     7    42   1
    45     7    43   1
    46     8    44   1
    47    12    45   1
    48    15    46   1
    49    15    47   1
    50    16    48   1
    51    16    49   1
    52    18    50   1
    53    19    51   1
    54    20    52   1
    55    21    53   1
    56    21    54   1
    57    23    55   1
    58    24    56   1
    59    25    57   1
    60    26    58   1
    61    27    59   1
    62    28    60   1
    63    32    61   1
    64    33    62   1
    65    34    63   1
    66    35    64   1
    67    36    65   1
@<TRIPOS>SUBSTRUCTURE
     1  KAF      1

