@<TRIPOS>MOLECULE
3bkk_ligand_006
    65    67
SMALL
GAST_HUCK
****
This file was generated by PARSER (from files_GN.cpp)

@<TRIPOS>ATOM
      1 CD1        46.2084   52.0271   43.8757 C.ar        1 KAF      -0.0602
      2 CE1        46.8258   53.1000   44.5438 C.ar        1 KAF      -0.0686
      3 CZ         48.0229   53.6493   44.0433 C.ar        1 KAF      -0.0687
      4 CE2        48.5804   53.1560   42.8554 C.ar        1 KAF      -0.0686
      5 CD2        47.9641   52.0856   42.1800 C.ar        1 KAF      -0.0602
      6 CG         46.7721   51.5014   42.6809 C.ar        1 KAF      -0.0392
      7 CB         46.1303   50.3721   41.9525 C.3         1 KAF       0.0159
      8 CA         46.8261   48.9851   42.0825 C.3         1 KAF       0.1038
      9 C          48.2945   49.0014   41.8965 C.2         1 KAF       0.0621
     10 O          48.8876   48.2359   40.9512 O.co2       1 KAF      -0.5664
     11 OXT        49.1013   49.5556   42.8297 O.co2       1 KAF      -0.5664
     12 N          46.5596   48.3612   43.3474 N.am        1 KAF      -0.2696
     13 CBC        45.7437   47.3372   43.5695 C.2         1 KAF       0.1780
     14 OAA        44.9492   46.9581   42.7100 O.2         1 KAF      -0.3970
     15 CAV        45.9148   46.5329   44.7602 C.3         1 KAF       0.0423
     16 CAW        45.1595   47.0656   46.0160 C.3         1 KAF       0.0204
     17 CBM        45.0733   46.0430   47.1981 C.3         1 KAF       0.1919
     18 OAE        44.2530   44.9636   46.7329 O.3         1 KAF      -0.3627
     19 OAF        44.3189   46.6262   48.2653 O.3         1 KAF      -0.3627
     20 CBL        46.4726   45.5541   47.7453 C.3         1 KAF       0.1045
     21 CAX        46.5077   44.0605   48.2192 C.3         1 KAF       0.0090
     22 CBF        45.4483   43.5922   49.1607 C.ar        1 KAF      -0.0407
     23 CAO        45.4324   44.0312   50.5072 C.ar        1 KAF      -0.0603
     24 CAI        44.4939   43.5162   51.4165 C.ar        1 KAF      -0.0686
     25 CAG        43.5501   42.5634   50.9911 C.ar        1 KAF      -0.0687
     26 CAJ        43.5441   42.1203   49.6585 C.ar        1 KAF      -0.0686
     27 CAP        44.4957   42.6207   48.7552 C.ar        1 KAF      -0.0603
     28 NBA        46.9794   46.4679   48.7390 N.am        1 KAF      -0.2759
     29 CBE        48.1665   46.4192   49.3395 C.2         1 KAF       0.2055
     30 OAC        48.9693   45.5574   48.9913 O.2         1 KAF      -0.3846
     31 CBG        48.5014   47.2964   50.3835 C.ar        1 KAF       0.0499
     32 CAR        47.8583   48.5528   50.5390 C.ar        1 KAF      -0.0419
     33 CAL        48.1695   49.3961   51.6212 C.ar        1 KAF      -0.0562
     34 CAH        49.1299   49.0071   52.5699 C.ar        1 KAF      -0.0575
     35 CAK        49.7939   47.7780   52.4239 C.ar        1 KAF      -0.0562
     36 CAQ        49.4869   46.9367   51.3393 C.ar        1 KAF      -0.0419
     37 H1         45.3451   51.6369   44.2508 H           1 KAF       0.0557
     38 H2         46.4171   53.4674   45.4058 H           1 KAF       0.0599
     39 H3         48.4810   54.4183   44.5417 H           1 KAF       0.0559
     40 H4         49.4351   53.5674   42.4818 H           1 KAF       0.0599
     41 H5         48.3758   51.7456   41.3120 H           1 KAF       0.0557
     42 H6         46.0724   50.6337   40.8936 H           1 KAF       0.0467
     43 H7         45.0944   50.2583   42.2855 H           1 KAF       0.0467
     44 H8         46.4139   48.3632   41.2724 H           1 KAF       0.0749
     45 H9         47.1399   48.6221   44.0846 H           1 KAF       0.1876
     46 H10        46.9849   46.4631   44.9858 H           1 KAF       0.0504
     47 H11        45.5841   45.5125   44.5409 H           1 KAF       0.0504
     48 H12        44.1405   47.3269   45.7202 H           1 KAF       0.0342
     49 H13        45.6494   47.9857   46.3607 H           1 KAF       0.0342
     50 H14        43.6744   44.7423   47.4969 H           1 KAF       0.2128
     51 H15        43.4368   46.8543   47.9029 H           1 KAF       0.2128
     52 H16        47.1748   45.6018   46.9116 H           1 KAF       0.0632
     53 H17        47.4759   43.8555   48.6831 H           1 KAF       0.0450
     54 H18        46.4827   43.4422   47.3194 H           1 KAF       0.0450
     55 H19        46.1217   44.7060   50.8368 H           1 KAF       0.0557
     56 H20        44.5059   43.8248   52.3876 H           1 KAF       0.0599
     57 H21        42.8659   42.1818   51.6596 H           1 KAF       0.0559
     58 H22        42.8623   41.4294   49.3523 H           1 KAF       0.0599
     59 H23        44.4910   42.2702   47.7974 H           1 KAF       0.0557
     60 H24        46.3910   47.2028   48.9836 H           1 KAF       0.1852
     61 H25        47.1635   48.8773   49.8644 H           1 KAF       0.0669
     62 H26        47.6922   50.2932   51.7252 H           1 KAF       0.0629
     63 H27        49.3512   49.6147   53.3591 H           1 KAF       0.0653
     64 H28        50.4951   47.4873   53.1121 H           1 KAF       0.0629
     65 H29        49.9791   46.0434   51.2726 H           1 KAF       0.0669
@<TRIPOS>BOND
     1     1     2  ar
     2     1     6  ar
     3     2     3  ar
     4     3     4  ar
     5     4     5  ar
     6     5     6  ar
     7     6     7   1
     8     7     8   1
     9     8     9   1
    10     8    12   1
    11     9    10  ar
    12     9    11  ar
    13    12    13  am
    14    13    14   2
    15    13    15   1
    16    15    16   1
    17    16    17   1
    18    17    18   1
    19    17    19   1
    20    17    20   1
    21    20    21   1
    22    20    28   1
    23    21    22   1
    24    22    23  ar
    25    22    27  ar
    26    23    24  ar
    27    24    25  ar
    28    25    26  ar
    29    26    27  ar
    30    28    29  am
    31    29    30   2
    32    29    31   1
    33    31    32  ar
    34    31    36  ar
    35    32    33  ar
    36    33    34  ar
    37    34    35  ar
    38    35    36  ar
    39     1    37   1
    40     2    38   1
    41     3    39   1
    42     4    40   1
    43     5    41   1
    44     7    42   1
    45     7    43   1
    46     8    44   1
    47    12    45   1
    48    15    46   1
    49    15    47   1
    50    16    48   1
    51    16    49   1
    52    18    50   1
    53    19    51   1
    54    20    52   1
    55    21    53   1
    56    21    54   1
    57    23    55   1
    58    24    56   1
    59    25    57   1
    60    26    58   1
    61    27    59   1
    62    28    60   1
    63    32    61   1
    64    33    62   1
    65    34    63   1
    66    35    64   1
    67    36    65   1
@<TRIPOS>SUBSTRUCTURE
     1  KAF      1

