@<TRIPOS>MOLECULE
3bkk_ligand_003
    65    67
SMALL
GAST_HUCK
****
This file was generated by PARSER (from files_GN.cpp)

@<TRIPOS>ATOM
      1 CD1        43.5115   47.2327   41.4615 C.ar        1 KAF      -0.0602
      2 CE1        42.3900   48.0152   41.1242 C.ar        1 KAF      -0.0686
      3 CZ         42.5546   49.2239   40.4359 C.ar        1 KAF      -0.0687
      4 CE2        43.8534   49.6697   40.0913 C.ar        1 KAF      -0.0686
      5 CD2        44.9701   48.8921   40.4452 C.ar        1 KAF      -0.0602
      6 CG         44.8214   47.6677   41.1336 C.ar        1 KAF      -0.0392
      7 CB         46.0082   46.8266   41.4436 C.3         1 KAF       0.0159
      8 CA         47.0334   47.4586   42.4423 C.3         1 KAF       0.1038
      9 C          47.7926   48.5661   41.7982 C.2         1 KAF       0.0621
     10 O          47.3572   49.8483   41.8809 O.co2       1 KAF      -0.5664
     11 OXT        48.7932   48.2993   40.9255 O.co2       1 KAF      -0.5664
     12 N          46.5346   47.9148   43.7192 N.am        1 KAF      -0.2696
     13 CBC        45.4839   47.4667   44.4078 C.2         1 KAF       0.1780
     14 OAA        44.6112   46.7522   43.9094 O.2         1 KAF      -0.3970
     15 CAV        45.3431   47.7799   45.8152 C.3         1 KAF       0.0423
     16 CAW        45.9956   46.6979   46.7339 C.3         1 KAF       0.0204
     17 CBM        45.0367   45.7284   47.5226 C.3         1 KAF       0.1919
     18 OAE        43.9636   45.2898   46.6864 O.3         1 KAF      -0.3627
     19 OAF        44.3770   46.5015   48.5369 O.3         1 KAF      -0.3627
     20 CBL        45.8334   44.5014   48.1513 C.3         1 KAF       0.1045
     21 CAX        45.3564   43.0663   47.7041 C.3         1 KAF       0.0090
     22 CBF        44.3771   42.3054   48.5319 C.ar        1 KAF      -0.0407
     23 CAO        43.4337   42.9117   49.4003 C.ar        1 KAF      -0.0603
     24 CAI        42.6079   42.1489   50.2377 C.ar        1 KAF      -0.0686
     25 CAG        42.6820   40.7381   50.2019 C.ar        1 KAF      -0.0687
     26 CAJ        43.5751   40.1153   49.3167 C.ar        1 KAF      -0.0686
     27 CAP        44.4029   40.8824   48.4887 C.ar        1 KAF      -0.0603
     28 NBA        45.9190   44.6133   49.5917 N.am        1 KAF      -0.2759
     29 CBE        46.5245   43.7936   50.4475 C.2         1 KAF       0.2055
     30 OAC        47.2639   42.9246   49.9897 O.2         1 KAF      -0.3846
     31 CBG        46.2715   43.8252   51.8243 C.ar        1 KAF       0.0499
     32 CAR        45.3326   44.7489   52.4005 C.ar        1 KAF      -0.0419
     33 CAL        45.0719   44.7446   53.7789 C.ar        1 KAF      -0.0562
     34 CAH        45.7042   43.8387   54.6267 C.ar        1 KAF      -0.0575
     35 CAK        46.6300   42.9099   54.0884 C.ar        1 KAF      -0.0562
     36 CAQ        46.8996   42.9235   52.7076 C.ar        1 KAF      -0.0419
     37 H1         43.3571   46.3455   41.9288 H           1 KAF       0.0557
     38 H2         41.4527   47.6907   41.3722 H           1 KAF       0.0599
     39 H3         41.7441   49.7844   40.1707 H           1 KAF       0.0559
     40 H4         43.9742   50.5427   39.5814 H           1 KAF       0.0599
     41 H5         45.9016   49.2357   40.1849 H           1 KAF       0.0557
     42 H6         46.5177   46.5652   40.5159 H           1 KAF       0.0467
     43 H7         45.6794   45.8569   41.8234 H           1 KAF       0.0467
     44 H8         47.7708   46.6778   42.6679 H           1 KAF       0.0749
     45 H9         47.1434   48.4988   44.2123 H           1 KAF       0.1876
     46 H10        44.2818   47.9149   46.0556 H           1 KAF       0.0504
     47 H11        45.8379   48.7287   46.0205 H           1 KAF       0.0504
     48 H12        46.6116   47.2152   47.4758 H           1 KAF       0.0342
     49 H13        46.6931   46.1247   46.1156 H           1 KAF       0.0342
     50 H14        43.3729   46.0669   46.5862 H           1 KAF       0.2128
     51 H15        43.5104   46.7662   48.1558 H           1 KAF       0.2128
     52 H16        46.8716   44.5752   47.7982 H           1 KAF       0.0632
     53 H17        46.2637   42.4619   47.6480 H           1 KAF       0.0450
     54 H18        44.9881   43.0930   46.6764 H           1 KAF       0.0450
     55 H19        43.3494   43.9338   49.4450 H           1 KAF       0.0557
     56 H20        41.9539   42.6048   50.8732 H           1 KAF       0.0599
     57 H21        42.0894   40.1847   50.8196 H           1 KAF       0.0559
     58 H22        43.6285   39.0910   49.2903 H           1 KAF       0.0599
     59 H23        45.0463   40.4052   47.8624 H           1 KAF       0.0557
     60 H24        45.3983   45.3288   49.9841 H           1 KAF       0.1852
     61 H25        44.8343   45.4154   51.8220 H           1 KAF       0.0669
     62 H26        44.3927   45.4111   54.1658 H           1 KAF       0.0629
     63 H27        45.4941   43.8176   55.6236 H           1 KAF       0.0653
     64 H28        47.0861   42.2375   54.7007 H           1 KAF       0.0629
     65 H29        47.5803   42.2344   52.3570 H           1 KAF       0.0669
@<TRIPOS>BOND
     1     1     2  ar
     2     1     6  ar
     3     2     3  ar
     4     3     4  ar
     5     4     5  ar
     6     5     6  ar
     7     6     7   1
     8     7     8   1
     9     8     9   1
    10     8    12   1
    11     9    10  ar
    12     9    11  ar
    13    12    13  am
    14    13    14   2
    15    13    15   1
    16    15    16   1
    17    16    17   1
    18    17    18   1
    19    17    19   1
    20    17    20   1
    21    20    21   1
    22    20    28   1
    23    21    22   1
    24    22    23  ar
    25    22    27  ar
    26    23    24  ar
    27    24    25  ar
    28    25    26  ar
    29    26    27  ar
    30    28    29  am
    31    29    30   2
    32    29    31   1
    33    31    32  ar
    34    31    36  ar
    35    32    33  ar
    36    33    34  ar
    37    34    35  ar
    38    35    36  ar
    39     1    37   1
    40     2    38   1
    41     3    39   1
    42     4    40   1
    43     5    41   1
    44     7    42   1
    45     7    43   1
    46     8    44   1
    47    12    45   1
    48    15    46   1
    49    15    47   1
    50    16    48   1
    51    16    49   1
    52    18    50   1
    53    19    51   1
    54    20    52   1
    55    21    53   1
    56    21    54   1
    57    23    55   1
    58    24    56   1
    59    25    57   1
    60    26    58   1
    61    27    59   1
    62    28    60   1
    63    32    61   1
    64    33    62   1
    65    34    63   1
    66    35    64   1
    67    36    65   1
@<TRIPOS>SUBSTRUCTURE
     1  KAF      1

