@<TRIPOS>MOLECULE
3bkk_ligand_000
    65    67
SMALL
GAST_HUCK
****
This file was generated by PARSER (from files_GN.cpp)

@<TRIPOS>ATOM
      1 CD1        46.1389   51.3889   43.3887 C.ar        1 KAF      -0.0602
      2 CE1        46.6532   52.5092   44.0679 C.ar        1 KAF      -0.0686
      3 CZ         47.8637   53.0898   43.6464 C.ar        1 KAF      -0.0687
      4 CE2        48.5592   52.5455   42.5517 C.ar        1 KAF      -0.0686
      5 CD2        48.0402   51.4291   41.8718 C.ar        1 KAF      -0.0602
      6 CG         46.8257   50.8311   42.2821 C.ar        1 KAF      -0.0392
      7 CB         46.2503   49.6619   41.5544 C.3         1 KAF       0.0159
      8 CA         46.5620   48.2568   42.1663 C.3         1 KAF       0.1038
      9 C          47.9235   47.7348   41.8966 C.2         1 KAF       0.0621
     10 O          48.8159   48.3640   41.0967 O.co2       1 KAF      -0.5664
     11 OXT        48.2582   46.5059   42.3481 O.co2       1 KAF      -0.5664
     12 N          46.3308   48.2560   43.5882 N.am        1 KAF      -0.2696
     13 CBC        45.2724   47.7812   44.2362 C.2         1 KAF       0.1780
     14 OAA        44.3630   47.2122   43.6456 O.2         1 KAF      -0.3970
     15 CAV        45.1828   47.9366   45.6806 C.3         1 KAF       0.0423
     16 CAW        45.9028   46.8063   46.4872 C.3         1 KAF       0.0204
     17 CBM        45.0220   45.8287   47.3388 C.3         1 KAF       0.1919
     18 OAE        43.9848   45.3002   46.5002 O.3         1 KAF      -0.3627
     19 OAF        44.3466   46.5872   48.3468 O.3         1 KAF      -0.3627
     20 CBL        45.9098   44.6832   48.0014 C.3         1 KAF       0.1045
     21 CAX        45.4773   43.2077   47.6584 C.3         1 KAF       0.0090
     22 CBF        44.4414   42.5202   48.4937 C.ar        1 KAF      -0.0407
     23 CAO        43.5083   43.2028   49.3157 C.ar        1 KAF      -0.0603
     24 CAI        42.6117   42.4928   50.1374 C.ar        1 KAF      -0.0686
     25 CAG        42.5991   41.0871   50.1168 C.ar        1 KAF      -0.0687
     26 CAJ        43.4855   40.3930   49.2792 C.ar        1 KAF      -0.0686
     27 CAP        44.3978   41.1032   48.4803 C.ar        1 KAF      -0.0603
     28 NBA        46.0612   44.8552   49.4256 N.am        1 KAF      -0.2759
     29 CBE        46.8406   44.1704   50.2616 C.2         1 KAF       0.2055
     30 OAC        47.6951   43.4199   49.8023 O.2         1 KAF      -0.3846
     31 CBG        46.6641   44.2413   51.6586 C.ar        1 KAF       0.0499
     32 CAR        45.5058   44.8362   52.2335 C.ar        1 KAF      -0.0419
     33 CAL        45.3177   44.8816   53.6272 C.ar        1 KAF      -0.0562
     34 CAH        46.2771   44.3218   54.4884 C.ar        1 KAF      -0.0575
     35 CAK        47.4249   43.7202   53.9491 C.ar        1 KAF      -0.0562
     36 CAQ        47.6164   43.6794   52.5536 C.ar        1 KAF      -0.0419
     37 H1         45.2541   50.9886   43.7037 H           1 KAF       0.0557
     38 H2         46.1502   52.9008   44.8664 H           1 KAF       0.0599
     39 H3         48.2414   53.9026   44.1441 H           1 KAF       0.0559
     40 H4         49.4435   52.9643   42.2521 H           1 KAF       0.0599
     41 H5         48.5567   51.0599   41.0703 H           1 KAF       0.0557
     42 H6         46.5696   49.6779   40.5076 H           1 KAF       0.0467
     43 H7         45.1590   49.7811   41.5240 H           1 KAF       0.0467
     44 H8         45.8886   47.5486   41.6685 H           1 KAF       0.0749
     45 H9         47.0074   48.6993   44.1298 H           1 KAF       0.1876
     46 H10        44.1291   48.0074   45.9704 H           1 KAF       0.0504
     47 H11        45.6187   48.9014   45.9521 H           1 KAF       0.0504
     48 H12        46.6108   47.2846   47.1760 H           1 KAF       0.0342
     49 H13        46.5003   46.2001   45.8035 H           1 KAF       0.0342
     50 H14        43.3859   46.0597   46.3105 H           1 KAF       0.2128
     51 H15        43.6109   47.0684   47.8950 H           1 KAF       0.2128
     52 H16        46.9246   44.7818   47.5952 H           1 KAF       0.0632
     53 H17        46.3864   42.6047   47.7231 H           1 KAF       0.0450
     54 H18        45.1688   43.1379   46.6120 H           1 KAF       0.0450
     55 H19        43.4703   44.2172   49.3328 H           1 KAF       0.0557
     56 H20        41.9664   43.0000   50.7492 H           1 KAF       0.0599
     57 H21        41.9471   40.5722   50.7169 H           1 KAF       0.0559
     58 H22        43.4750   39.3719   49.2615 H           1 KAF       0.0599
     59 H23        45.0472   40.5742   47.8922 H           1 KAF       0.0557
     60 H24        45.4747   45.4978   49.8386 H           1 KAF       0.1852
     61 H25        44.7692   45.2271   51.6471 H           1 KAF       0.0669
     62 H26        44.4715   45.3122   54.0136 H           1 KAF       0.0629
     63 H27        46.1320   44.3468   55.4950 H           1 KAF       0.0653
     64 H28        48.1202   43.3014   54.5733 H           1 KAF       0.0629
     65 H29        48.4658   43.2330   52.1993 H           1 KAF       0.0669
@<TRIPOS>BOND
     1     1     2  ar
     2     1     6  ar
     3     2     3  ar
     4     3     4  ar
     5     4     5  ar
     6     5     6  ar
     7     6     7   1
     8     7     8   1
     9     8     9   1
    10     8    12   1
    11     9    10  ar
    12     9    11  ar
    13    12    13  am
    14    13    14   2
    15    13    15   1
    16    15    16   1
    17    16    17   1
    18    17    18   1
    19    17    19   1
    20    17    20   1
    21    20    21   1
    22    20    28   1
    23    21    22   1
    24    22    23  ar
    25    22    27  ar
    26    23    24  ar
    27    24    25  ar
    28    25    26  ar
    29    26    27  ar
    30    28    29  am
    31    29    30   2
    32    29    31   1
    33    31    32  ar
    34    31    36  ar
    35    32    33  ar
    36    33    34  ar
    37    34    35  ar
    38    35    36  ar
    39     1    37   1
    40     2    38   1
    41     3    39   1
    42     4    40   1
    43     5    41   1
    44     7    42   1
    45     7    43   1
    46     8    44   1
    47    12    45   1
    48    15    46   1
    49    15    47   1
    50    16    48   1
    51    16    49   1
    52    18    50   1
    53    19    51   1
    54    20    52   1
    55    21    53   1
    56    21    54   1
    57    23    55   1
    58    24    56   1
    59    25    57   1
    60    26    58   1
    61    27    59   1
    62    28    60   1
    63    32    61   1
    64    33    62   1
    65    34    63   1
    66    35    64   1
    67    36    65   1
@<TRIPOS>SUBSTRUCTURE
     1  KAF      1

