@<TRIPOS>MOLECULE
3bkk_ligand_004
    65    67
SMALL
GAST_HUCK
****
This file was generated by PARSER (from files_GN.cpp)

@<TRIPOS>ATOM
      1 CD1        44.3289   46.8114   39.2874 C.ar        1 KAF      -0.0602
      2 CE1        43.7716   47.3229   38.0953 C.ar        1 KAF      -0.0686
      3 CZ         44.6098   47.8691   37.1058 C.ar        1 KAF      -0.0687
      4 CE2        46.0020   47.8907   37.2975 C.ar        1 KAF      -0.0686
      5 CD2        46.5515   47.3830   38.4926 C.ar        1 KAF      -0.0602
      6 CG         45.7254   46.8421   39.5099 C.ar        1 KAF      -0.0392
      7 CB         46.3347   46.2380   40.7306 C.3         1 KAF       0.0159
      8 CA         46.8913   47.2074   41.8343 C.3         1 KAF       0.1038
      9 C          47.6422   48.3641   41.3011 C.2         1 KAF       0.0621
     10 O          47.0163   49.4850   40.8768 O.co2       1 KAF      -0.5664
     11 OXT        48.9378   48.2063   40.9513 O.co2       1 KAF      -0.5664
     12 N          45.8885   47.6945   42.7421 N.am        1 KAF      -0.2696
     13 CBC        45.3944   47.0477   43.7958 C.2         1 KAF       0.1780
     14 OAA        45.6689   45.8705   43.9925 O.2         1 KAF      -0.3970
     15 CAV        44.4951   47.7240   44.7123 C.3         1 KAF       0.0423
     16 CAW        44.9355   47.7348   46.2065 C.3         1 KAF       0.0204
     17 CBM        44.8636   46.3871   47.0237 C.3         1 KAF       0.1919
     18 OAE        44.0402   45.4364   46.3450 O.3         1 KAF      -0.3627
     19 OAF        44.1679   46.6113   48.2564 O.3         1 KAF      -0.3627
     20 CBL        46.2710   45.7801   47.3847 C.3         1 KAF       0.1045
     21 CAX        46.2346   44.2519   47.7411 C.3         1 KAF       0.0090
     22 CBF        45.3052   43.7796   48.8143 C.ar        1 KAF      -0.0407
     23 CAO        44.3961   42.7173   48.5657 C.ar        1 KAF      -0.0603
     24 CAI        43.5637   42.2206   49.5871 C.ar        1 KAF      -0.0686
     25 CAG        43.6306   42.7718   50.8789 C.ar        1 KAF      -0.0687
     26 CAJ        44.5355   43.8141   51.1479 C.ar        1 KAF      -0.0686
     27 CAP        45.3707   44.3059   50.1286 C.ar        1 KAF      -0.0603
     28 NBA        46.8729   46.5718   48.4306 N.am        1 KAF      -0.2759
     29 CBE        48.1059   46.5037   48.9294 C.2         1 KAF       0.2055
     30 OAC        48.9174   45.7298   48.4170 O.2         1 KAF      -0.3846
     31 CBG        48.4585   47.2057   50.0844 C.ar        1 KAF       0.0499
     32 CAR        47.7793   48.3920   50.4711 C.ar        1 KAF      -0.0419
     33 CAL        48.1401   49.0913   51.6386 C.ar        1 KAF      -0.0562
     34 CAH        49.1829   48.6156   52.4487 C.ar        1 KAF      -0.0575
     35 CAK        49.8581   47.4333   52.1025 C.ar        1 KAF      -0.0562
     36 CAQ        49.5017   46.7392   50.9317 C.ar        1 KAF      -0.0419
     37 H1         43.7000   46.4073   39.9874 H           1 KAF       0.0557
     38 H2         42.7640   47.2835   37.9430 H           1 KAF       0.0599
     39 H3         44.2083   48.2373   36.2382 H           1 KAF       0.0559
     40 H4         46.6127   48.2612   36.5694 H           1 KAF       0.0599
     41 H5         47.5682   47.4004   38.6053 H           1 KAF       0.0557
     42 H6         47.1549   45.5922   40.4001 H           1 KAF       0.0467
     43 H7         45.6162   45.5669   41.2074 H           1 KAF       0.0467
     44 H8         47.6155   46.6383   42.4224 H           1 KAF       0.0749
     45 H9         45.6226   48.6227   42.6389 H           1 KAF       0.1876
     46 H10        43.5032   47.2705   44.6265 H           1 KAF       0.0504
     47 H11        44.3761   48.7670   44.4003 H           1 KAF       0.0504
     48 H12        44.2839   48.4627   46.6951 H           1 KAF       0.0342
     49 H13        45.9448   48.1591   46.2631 H           1 KAF       0.0342
     50 H14        43.1719   45.8882   46.2752 H           1 KAF       0.2128
     51 H15        43.2749   46.9065   47.9974 H           1 KAF       0.2128
     52 H16        46.9061   45.8812   46.4972 H           1 KAF       0.0632
     53 H17        47.2339   43.9189   48.0213 H           1 KAF       0.0450
     54 H18        46.0076   43.7194   46.8080 H           1 KAF       0.0450
     55 H19        44.3531   42.2806   47.6458 H           1 KAF       0.0557
     56 H20        42.9226   41.4504   49.3950 H           1 KAF       0.0599
     57 H21        43.0314   42.4078   51.6234 H           1 KAF       0.0559
     58 H22        44.5933   44.2111   52.0872 H           1 KAF       0.0599
     59 H23        46.0313   45.0442   50.3625 H           1 KAF       0.0557
     60 H24        46.2820   47.2199   48.8523 H           1 KAF       0.1852
     61 H25        47.0315   48.7782   49.8945 H           1 KAF       0.0669
     62 H26        47.6447   49.9458   51.8927 H           1 KAF       0.0629
     63 H27        49.4498   49.1292   53.2936 H           1 KAF       0.0653
     64 H28        50.6068   47.0776   52.7015 H           1 KAF       0.0629
     65 H29        50.0093   45.8790   50.7128 H           1 KAF       0.0669
@<TRIPOS>BOND
     1     1     2  ar
     2     1     6  ar
     3     2     3  ar
     4     3     4  ar
     5     4     5  ar
     6     5     6  ar
     7     6     7   1
     8     7     8   1
     9     8     9   1
    10     8    12   1
    11     9    10  ar
    12     9    11  ar
    13    12    13  am
    14    13    14   2
    15    13    15   1
    16    15    16   1
    17    16    17   1
    18    17    18   1
    19    17    19   1
    20    17    20   1
    21    20    21   1
    22    20    28   1
    23    21    22   1
    24    22    23  ar
    25    22    27  ar
    26    23    24  ar
    27    24    25  ar
    28    25    26  ar
    29    26    27  ar
    30    28    29  am
    31    29    30   2
    32    29    31   1
    33    31    32  ar
    34    31    36  ar
    35    32    33  ar
    36    33    34  ar
    37    34    35  ar
    38    35    36  ar
    39     1    37   1
    40     2    38   1
    41     3    39   1
    42     4    40   1
    43     5    41   1
    44     7    42   1
    45     7    43   1
    46     8    44   1
    47    12    45   1
    48    15    46   1
    49    15    47   1
    50    16    48   1
    51    16    49   1
    52    18    50   1
    53    19    51   1
    54    20    52   1
    55    21    53   1
    56    21    54   1
    57    23    55   1
    58    24    56   1
    59    25    57   1
    60    26    58   1
    61    27    59   1
    62    28    60   1
    63    32    61   1
    64    33    62   1
    65    34    63   1
    66    35    64   1
    67    36    65   1
@<TRIPOS>SUBSTRUCTURE
     1  KAF      1

