@<TRIPOS>MOLECULE
3bkk_ligand_009
    65    67
SMALL
GAST_HUCK
****
This file was generated by PARSER (from files_GN.cpp)

@<TRIPOS>ATOM
      1 CD1        44.4586   50.3393   41.4863 C.ar        1 KAF      -0.0602
      2 CE1        44.0644   51.6399   41.8538 C.ar        1 KAF      -0.0686
      3 CZ         44.0884   52.0289   43.2044 C.ar        1 KAF      -0.0687
      4 CE2        44.4885   51.1099   44.1882 C.ar        1 KAF      -0.0686
      5 CD2        44.8692   49.8058   43.8207 C.ar        1 KAF      -0.0602
      6 CG         44.8858   49.4068   42.4628 C.ar        1 KAF      -0.0392
      7 CB         45.3373   48.0382   42.0719 C.3         1 KAF       0.0159
      8 CA         46.8391   47.6931   42.3404 C.3         1 KAF       0.1038
      9 C          47.7579   48.6707   41.7183 C.2         1 KAF       0.0621
     10 O          47.7355   49.9709   42.0815 O.co2       1 KAF      -0.5664
     11 OXT        48.8111   48.2511   40.9834 O.co2       1 KAF      -0.5664
     12 N          47.1624   47.5829   43.7354 N.am        1 KAF      -0.2696
     13 CBC        46.6813   46.6929   44.5963 C.2         1 KAF       0.1780
     14 OAA        45.9036   45.8246   44.2195 O.2         1 KAF      -0.3970
     15 CAV        47.1199   46.6808   45.9850 C.3         1 KAF       0.0423
     16 CAW        46.0150   46.9649   47.0478 C.3         1 KAF       0.0204
     17 CBM        45.0446   45.8207   47.4894 C.3         1 KAF       0.1919
     18 OAE        44.1491   45.4911   46.4220 O.3         1 KAF      -0.3627
     19 OAF        44.2247   46.3506   48.5418 O.3         1 KAF      -0.3627
     20 CBL        45.7655   44.5389   48.0531 C.3         1 KAF       0.1045
     21 CAX        44.9227   43.2201   47.9145 C.3         1 KAF       0.0090
     22 CBF        45.2615   42.0878   48.8252 C.ar        1 KAF      -0.0407
     23 CAO        46.6021   41.7886   49.1646 C.ar        1 KAF      -0.0603
     24 CAI        46.8959   40.7941   50.1189 C.ar        1 KAF      -0.0686
     25 CAG        45.8592   40.0496   50.7069 C.ar        1 KAF      -0.0687
     26 CAJ        44.5267   40.2896   50.3296 C.ar        1 KAF      -0.0686
     27 CAP        44.2305   41.3038   49.4004 C.ar        1 KAF      -0.0603
     28 NBA        46.3121   44.7631   49.3719 N.am        1 KAF      -0.2759
     29 CBE        45.6780   44.8804   50.5380 C.2         1 KAF       0.2055
     30 OAC        44.4537   44.8561   50.5275 O.2         1 KAF      -0.3846
     31 CBG        46.3578   44.9952   51.7669 C.ar        1 KAF       0.0499
     32 CAR        47.7763   44.9161   51.8570 C.ar        1 KAF      -0.0419
     33 CAL        48.4424   45.0248   53.0917 C.ar        1 KAF      -0.0562
     34 CAH        47.7088   45.2118   54.2746 C.ar        1 KAF      -0.0575
     35 CAK        46.3086   45.2897   54.2235 C.ar        1 KAF      -0.0562
     36 CAQ        45.6451   45.1826   52.9863 C.ar        1 KAF      -0.0419
     37 H1         44.4320   50.0814   40.4978 H           1 KAF       0.0557
     38 H2         43.7585   52.3040   41.1370 H           1 KAF       0.0599
     39 H3         43.8142   52.9771   43.4696 H           1 KAF       0.0559
     40 H4         44.5011   51.3879   45.1713 H           1 KAF       0.0599
     41 H5         45.1335   49.1505   44.5581 H           1 KAF       0.0557
     42 H6         45.1577   47.8758   41.0039 H           1 KAF       0.0467
     43 H7         44.7025   47.3154   42.5928 H           1 KAF       0.0467
     44 H8         47.0415   46.7218   41.8768 H           1 KAF       0.0749
     45 H9         47.8104   48.2155   44.0884 H           1 KAF       0.1876
     46 H10        47.8960   47.4377   46.1164 H           1 KAF       0.0504
     47 H11        47.6078   45.7257   46.1909 H           1 KAF       0.0504
     48 H12        45.4164   47.8027   46.6892 H           1 KAF       0.0342
     49 H13        46.5250   47.3091   47.9501 H           1 KAF       0.0342
     50 H14        43.5510   46.2651   46.3307 H           1 KAF       0.2128
     51 H15        43.3718   46.6608   48.1173 H           1 KAF       0.2128
     52 H16        46.6389   44.3669   47.4232 H           1 KAF       0.0632
     53 H17        45.0215   42.8511   46.8863 H           1 KAF       0.0450
     54 H18        43.8689   43.4874   48.0460 H           1 KAF       0.0450
     55 H19        47.3751   42.3187   48.7560 H           1 KAF       0.0557
     56 H20        47.8665   40.6179   50.3938 H           1 KAF       0.0599
     57 H21        46.0715   39.3330   51.4018 H           1 KAF       0.0559
     58 H22        43.7706   39.7338   50.7370 H           1 KAF       0.0599
     59 H23        43.2517   41.4686   49.1480 H           1 KAF       0.0557
     60 H24        47.2850   44.7961   49.4060 H           1 KAF       0.1852
     61 H25        48.3479   44.7739   51.0218 H           1 KAF       0.0669
     62 H26        49.4627   44.9714   53.1248 H           1 KAF       0.0629
     63 H27        48.1958   45.2874   55.1718 H           1 KAF       0.0653
     64 H28        45.7743   45.4288   55.0841 H           1 KAF       0.0629
     65 H29        44.6242   45.2513   52.9948 H           1 KAF       0.0669
@<TRIPOS>BOND
     1     1     2  ar
     2     1     6  ar
     3     2     3  ar
     4     3     4  ar
     5     4     5  ar
     6     5     6  ar
     7     6     7   1
     8     7     8   1
     9     8     9   1
    10     8    12   1
    11     9    10  ar
    12     9    11  ar
    13    12    13  am
    14    13    14   2
    15    13    15   1
    16    15    16   1
    17    16    17   1
    18    17    18   1
    19    17    19   1
    20    17    20   1
    21    20    21   1
    22    20    28   1
    23    21    22   1
    24    22    23  ar
    25    22    27  ar
    26    23    24  ar
    27    24    25  ar
    28    25    26  ar
    29    26    27  ar
    30    28    29  am
    31    29    30   2
    32    29    31   1
    33    31    32  ar
    34    31    36  ar
    35    32    33  ar
    36    33    34  ar
    37    34    35  ar
    38    35    36  ar
    39     1    37   1
    40     2    38   1
    41     3    39   1
    42     4    40   1
    43     5    41   1
    44     7    42   1
    45     7    43   1
    46     8    44   1
    47    12    45   1
    48    15    46   1
    49    15    47   1
    50    16    48   1
    51    16    49   1
    52    18    50   1
    53    19    51   1
    54    20    52   1
    55    21    53   1
    56    21    54   1
    57    23    55   1
    58    24    56   1
    59    25    57   1
    60    26    58   1
    61    27    59   1
    62    28    60   1
    63    32    61   1
    64    33    62   1
    65    34    63   1
    66    35    64   1
    67    36    65   1
@<TRIPOS>SUBSTRUCTURE
     1  KAF      1

