@<TRIPOS>MOLECULE
3bkk_ligand_015
    65    67
SMALL
GAST_HUCK
****
This file was generated by PARSER (from files_GN.cpp)

@<TRIPOS>ATOM
      1 CD1        46.7986   45.7998   54.4202 C.ar        1 KAF      -0.0602
      2 CE1        48.1110   46.1131   54.8206 C.ar        1 KAF      -0.0686
      3 CZ         48.9885   45.0875   55.2159 C.ar        1 KAF      -0.0687
      4 CE2        48.5342   43.7605   55.2654 C.ar        1 KAF      -0.0686
      5 CD2        47.2137   43.4509   54.8922 C.ar        1 KAF      -0.0602
      6 CG         46.3368   44.4604   54.4201 C.ar        1 KAF      -0.0392
      7 CB         44.9591   44.1313   53.9433 C.3         1 KAF       0.0159
      8 CA         44.8084   42.7641   53.1742 C.3         1 KAF       0.1038
      9 C          44.0222   41.7188   53.8874 C.2         1 KAF       0.0621
     10 O          43.9014   40.4922   53.3330 O.co2       1 KAF      -0.5664
     11 OXT        43.3942   41.9192   55.0701 O.co2       1 KAF      -0.5664
     12 N          44.1908   42.9524   51.8849 N.am        1 KAF      -0.2696
     13 CBC        44.5916   42.4572   50.7170 C.2         1 KAF       0.1780
     14 OAA        45.5766   41.7312   50.6510 O.2         1 KAF      -0.3970
     15 CAV        43.8293   42.6726   49.4947 C.3         1 KAF       0.0423
     16 CAW        44.6663   43.3394   48.3517 C.3         1 KAF       0.0204
     17 CBM        44.3770   44.8536   48.0558 C.3         1 KAF       0.1919
     18 OAE        43.7195   45.4832   49.1574 O.3         1 KAF      -0.3627
     19 OAF        43.4316   44.8576   46.9763 O.3         1 KAF      -0.3627
     20 CBL        45.6673   45.6604   47.6425 C.3         1 KAF       0.1045
     21 CAX        46.5892   46.1525   48.8133 C.3         1 KAF       0.0090
     22 CBF        47.3471   45.1165   49.5627 C.ar        1 KAF      -0.0407
     23 CAO        47.5010   45.1940   50.9674 C.ar        1 KAF      -0.0603
     24 CAI        48.2823   44.2452   51.6546 C.ar        1 KAF      -0.0686
     25 CAG        48.8737   43.1754   50.9584 C.ar        1 KAF      -0.0687
     26 CAJ        48.7083   43.0759   49.5693 C.ar        1 KAF      -0.0686
     27 CAP        47.9804   44.0560   48.8705 C.ar        1 KAF      -0.0603
     28 NBA        45.3471   46.8427   46.8871 N.am        1 KAF      -0.2759
     29 CBE        44.8280   46.9092   45.6626 C.2         1 KAF       0.2055
     30 OAC        44.4734   45.8649   45.1165 O.2         1 KAF      -0.3846
     31 CBG        44.6875   48.1378   45.0039 C.ar        1 KAF       0.0499
     32 CAR        45.3342   49.3197   45.4623 C.ar        1 KAF      -0.0419
     33 CAL        45.1582   50.5554   44.8124 C.ar        1 KAF      -0.0562
     34 CAH        44.3257   50.6392   43.6833 C.ar        1 KAF      -0.0575
     35 CAK        43.6934   49.4856   43.1905 C.ar        1 KAF      -0.0562
     36 CAQ        43.8782   48.2497   43.8423 C.ar        1 KAF      -0.0419
     37 H1         46.1838   46.5612   54.1247 H           1 KAF       0.0557
     38 H2         48.4294   47.0846   54.8177 H           1 KAF       0.0599
     39 H3         49.9485   45.3125   55.4837 H           1 KAF       0.0559
     40 H4         49.1691   43.0159   55.5689 H           1 KAF       0.0599
     41 H5         46.9073   42.4768   54.9349 H           1 KAF       0.0557
     42 H6         44.6076   44.9374   53.2913 H           1 KAF       0.0467
     43 H7         44.3061   44.1732   54.8177 H           1 KAF       0.0467
     44 H8         45.8048   42.3357   53.0296 H           1 KAF       0.0749
     45 H9         43.3648   43.4524   51.8881 H           1 KAF       0.1876
     46 H10        42.9297   43.2631   49.6949 H           1 KAF       0.0504
     47 H11        43.4783   41.6967   49.1507 H           1 KAF       0.0504
     48 H12        44.5036   42.7727   47.4287 H           1 KAF       0.0342
     49 H13        45.7219   43.1987   48.5614 H           1 KAF       0.0342
     50 H14        43.1152   46.1357   48.7453 H           1 KAF       0.2128
     51 H15        42.8380   45.6301   47.1180 H           1 KAF       0.2128
     52 H16        46.2837   45.0208   47.0016 H           1 KAF       0.0632
     53 H17        45.9849   46.7541   49.5014 H           1 KAF       0.0450
     54 H18        47.3473   46.8287   48.4029 H           1 KAF       0.0450
     55 H19        47.0746   45.9594   51.4973 H           1 KAF       0.0557
     56 H20        48.4222   44.3262   52.6601 H           1 KAF       0.0599
     57 H21        49.4298   42.4797   51.4635 H           1 KAF       0.0559
     58 H22        49.1267   42.2921   49.0649 H           1 KAF       0.0599
     59 H23        47.9009   43.9804   47.8537 H           1 KAF       0.0557
     60 H24        45.6075   47.6793   47.3012 H           1 KAF       0.1852
     61 H25        45.9584   49.2956   46.2715 H           1 KAF       0.0669
     62 H26        45.6337   51.3911   45.1607 H           1 KAF       0.0629
     63 H27        44.1832   51.5408   43.2193 H           1 KAF       0.0653
     64 H28        43.0942   49.5487   42.3629 H           1 KAF       0.0629
     65 H29        43.3971   47.4287   43.4603 H           1 KAF       0.0669
@<TRIPOS>BOND
     1     1     2  ar
     2     1     6  ar
     3     2     3  ar
     4     3     4  ar
     5     4     5  ar
     6     5     6  ar
     7     6     7   1
     8     7     8   1
     9     8     9   1
    10     8    12   1
    11     9    10  ar
    12     9    11  ar
    13    12    13  am
    14    13    14   2
    15    13    15   1
    16    15    16   1
    17    16    17   1
    18    17    18   1
    19    17    19   1
    20    17    20   1
    21    20    21   1
    22    20    28   1
    23    21    22   1
    24    22    23  ar
    25    22    27  ar
    26    23    24  ar
    27    24    25  ar
    28    25    26  ar
    29    26    27  ar
    30    28    29  am
    31    29    30   2
    32    29    31   1
    33    31    32  ar
    34    31    36  ar
    35    32    33  ar
    36    33    34  ar
    37    34    35  ar
    38    35    36  ar
    39     1    37   1
    40     2    38   1
    41     3    39   1
    42     4    40   1
    43     5    41   1
    44     7    42   1
    45     7    43   1
    46     8    44   1
    47    12    45   1
    48    15    46   1
    49    15    47   1
    50    16    48   1
    51    16    49   1
    52    18    50   1
    53    19    51   1
    54    20    52   1
    55    21    53   1
    56    21    54   1
    57    23    55   1
    58    24    56   1
    59    25    57   1
    60    26    58   1
    61    27    59   1
    62    28    60   1
    63    32    61   1
    64    33    62   1
    65    34    63   1
    66    35    64   1
    67    36    65   1
@<TRIPOS>SUBSTRUCTURE
     1  KAF      1

