@<TRIPOS>MOLECULE
3bpc_ligand_011
    58    59
SMALL
GAST_HUCK
****
This file was generated by PARSER (from files_GN.cpp)

@<TRIPOS>ATOM
      1 C1         31.6859   -2.3552   -0.9398 C.2         1 KDA       0.1089
      2 O1A        32.7619   -1.5430   -1.0178 O.co2       1 KDA      -0.5423
      3 O1B        31.6790   -3.4792   -1.6932 O.co2       1 KDA      -0.5423
      4 C2         30.4650   -1.8874   -0.2328 C.3         1 KDA       0.2378
      5 C3         29.7417   -0.8483   -1.1453 C.3         1 KDA       0.0399
      6 C4         28.3686   -0.4636   -0.5434 C.3         1 KDA       0.0884
      7 O4         27.6888    0.4278   -1.4247 O.3         1 KDA      -0.3891
      8 C5         27.5146   -1.7331   -0.2777 C.3         1 KDA       0.1096
      9 O5         27.1473   -2.3128   -1.5287 O.3         1 KDA      -0.3866
     10 C6         28.2962   -2.7469    0.6199 C.3         1 KDA       0.1173
     11 O6         29.5882   -3.0226    0.0203 O.3         1 KDA      -0.3347
     12 C7         27.5425   -4.0927    0.8617 C.3         1 KDA       0.1055
     13 O7         26.2503   -3.8420    1.4206 O.3         1 KDA      -0.3869
     14 C8         28.2506   -5.0418    1.8490 C.3         1 KDA       0.0619
     15 O8         29.6796   -5.1564    1.6117 O.3         1 KDA      -0.4032
     16 O2         30.8271   -1.1839    0.9876 O.3         1 KDA      -0.3023
     17 C9         31.7381   -1.7373    1.8074 C.2         1 KDA       0.0369
     18 C10        32.4031   -0.9901    2.7041 C.2         1 KDA      -0.0824
     19 C11        32.1944    0.4354    2.8669 C.3         1 KDA      -0.0537
     20 C2         30.5135   -5.9398    2.5132 C.3         1 KDA       0.1781
     21 C1         29.7917   -7.0796    3.1464 C.2         1 KDA       0.0464
     22 O1B        28.7208   -6.8688    3.9440 O.co2       1 KDA      -0.5651
     23 O1A        30.2500   -8.3533    3.0798 O.co2       1 KDA      -0.5651
     24 C3         31.0962   -5.0722    3.5343 C.2         1 KDA      -0.0254
     25 C4         32.3790   -4.6733    3.5050 C.2         1 KDA      -0.0084
     26 C5         33.3067   -5.0786    2.4716 C.3         1 KDA       0.0514
     27 C6         32.5998   -5.6822    1.2160 C.3         1 KDA       0.0994
     28 O6         31.5448   -6.5480    1.6884 O.3         1 KDA      -0.3957
     29 C7         33.5201   -6.4057    0.1668 C.3         1 KDA       0.1076
     30 O7         33.0232   -7.7176   -0.1150 O.3         1 KDA      -0.3866
     31 C8         35.0298   -6.5746    0.4965 C.3         1 KDA       0.0729
     32 O8         35.6696   -5.3017    0.6428 O.3         1 KDA      -0.3924
     33 H1         29.5825   -1.2664   -2.1466 H           1 KDA       0.0340
     34 H2         30.3519    0.0549   -1.2496 H           1 KDA       0.0340
     35 H3         28.5326    0.0688    0.4005 H           1 KDA       0.0621
     36 H4         26.9825    0.8223   -0.8717 H           1 KDA       0.2099
     37 H5         26.6014   -1.4159    0.2324 H           1 KDA       0.0646
     38 H6         26.3689   -2.8783   -1.3293 H           1 KDA       0.2100
     39 H7         28.4516   -2.2745    1.5964 H           1 KDA       0.0649
     40 H8         27.4053   -4.6081   -0.0887 H           1 KDA       0.0642
     41 H9         25.6960   -3.4957    0.6911 H           1 KDA       0.2100
     42 H10        27.8128   -6.0433    1.7210 H           1 KDA       0.0570
     43 H11        28.0530   -4.7141    2.8736 H           1 KDA       0.0570
     44 H12        31.9420   -2.7105    1.7602 H           1 KDA       0.0849
     45 H13        33.0723   -1.4357    3.2893 H           1 KDA       0.0331
     46 H14        32.8544    0.8322    3.6466 H           1 KDA       0.0321
     47 H15        31.1580    0.6307    3.1585 H           1 KDA       0.0321
     48 H16        32.4090    0.9598    1.9311 H           1 KDA       0.0321
     49 H17        30.5066   -4.7184    4.2584 H           1 KDA       0.0527
     50 H18        32.7112   -4.1078    4.2498 H           1 KDA       0.1535
     51 H19        33.9721   -5.8091    2.9337 H           1 KDA       0.0720
     52 H20        33.9013   -4.2137    2.1677 H           1 KDA       0.0720
     53 H21        32.1236   -4.8532    0.6825 H           1 KDA       0.0667
     54 H22        33.4768   -5.8505   -0.7743 H           1 KDA       0.0646
     55 H23        32.1638   -7.5801   -0.5615 H           1 KDA       0.2100
     56 H24        35.5363   -7.0910   -0.3209 H           1 KDA       0.0584
     57 H25        35.1627   -7.1565    1.4171 H           1 KDA       0.0584
     58 H26        36.5967   -5.5135    0.8846 H           1 KDA       0.2095
@<TRIPOS>BOND
     1     1     2  ar
     2     1     3  ar
     3     1     4   1
     4     4     5   1
     5     4    11   1
     6     4    16   1
     7     5     6   1
     8     6     7   1
     9     6     8   1
    10     8     9   1
    11     8    10   1
    12    10    11   1
    13    10    12   1
    14    12    13   1
    15    12    14   1
    16    14    15   1
    17    15    20   1
    18    16    17   1
    19    17    18   2
    20    18    19   1
    21    20    21   1
    22    20    24   1
    23    20    28   1
    24    21    22  ar
    25    21    23  ar
    26    24    25   2
    27    25    26   1
    28    26    27   1
    29    27    28   1
    30    27    29   1
    31    29    30   1
    32    29    31   1
    33    31    32   1
    34     5    33   1
    35     5    34   1
    36     6    35   1
    37     7    36   1
    38     8    37   1
    39     9    38   1
    40    10    39   1
    41    12    40   1
    42    13    41   1
    43    14    42   1
    44    14    43   1
    45    17    44   1
    46    18    45   1
    47    19    46   1
    48    19    47   1
    49    19    48   1
    50    24    49   1
    51    25    50   1
    52    26    51   1
    53    26    52   1
    54    27    53   1
    55    29    54   1
    56    30    55   1
    57    31    56   1
    58    31    57   1
    59    32    58   1
@<TRIPOS>SUBSTRUCTURE
     1  KDA      1

