@<TRIPOS>MOLECULE
3bpc_ligand_024
    58    59
SMALL
GAST_HUCK
****
This file was generated by PARSER (from files_GN.cpp)

@<TRIPOS>ATOM
      1 C1         27.0576   -5.3665    4.3205 C.2         1 KDA       0.1089
      2 O1A        27.6560   -5.2695    5.5342 O.co2       1 KDA      -0.5423
      3 O1B        25.7407   -5.6996    4.2935 O.co2       1 KDA      -0.5423
      4 C2         27.8190   -5.0263    3.1035 C.3         1 KDA       0.2378
      5 C3         26.9975   -5.2754    1.7883 C.3         1 KDA       0.0399
      6 C4         27.6387   -4.6096    0.5412 C.3         1 KDA       0.0884
      7 O4         26.7568   -4.7705   -0.5767 O.3         1 KDA      -0.3891
      8 C5         27.9236   -3.1017    0.8066 C.3         1 KDA       0.1096
      9 O5         26.6985   -2.3754    0.9386 O.3         1 KDA      -0.3866
     10 C6         28.7753   -2.9781    2.1073 C.3         1 KDA       0.1173
     11 O6         28.0730   -3.5990    3.2146 O.3         1 KDA      -0.3347
     12 C7         29.2218   -1.5324    2.4802 C.3         1 KDA       0.1055
     13 O7         30.4965   -1.6110    3.1269 O.3         1 KDA      -0.3869
     14 C8         28.2781   -0.6882    3.3841 C.3         1 KDA       0.0619
     15 O8         27.8916   -1.3885    4.5886 O.3         1 KDA      -0.4032
     16 O2         29.1263   -5.6433    3.2266 O.3         1 KDA      -0.3023
     17 C9         29.5203   -6.7024    2.5155 C.2         1 KDA       0.0369
     18 C10        30.7993   -6.8202    2.1388 C.2         1 KDA      -0.0824
     19 C11        31.8345   -5.8605    2.4828 C.3         1 KDA      -0.0537
     20 C2         27.5201   -0.6145    5.7601 C.3         1 KDA       0.1781
     21 C1         28.6574   -0.5104    6.7138 C.2         1 KDA       0.0464
     22 O1B        29.7949   -1.2333    6.5351 O.co2       1 KDA      -0.5651
     23 O1A        28.5375    0.2102    7.8465 O.co2       1 KDA      -0.5651
     24 C3         26.4457   -1.3412    6.4530 C.2         1 KDA      -0.0254
     25 C4         25.2288   -0.8030    6.6495 C.2         1 KDA      -0.0084
     26 C5         24.8599    0.5087    6.1447 C.3         1 KDA       0.0514
     27 C6         25.7918    0.9668    4.9836 C.3         1 KDA       0.0994
     28 O6         27.1530    0.7502    5.4158 O.3         1 KDA      -0.3957
     29 C7         25.6208    2.4597    4.5710 C.3         1 KDA       0.1076
     30 O7         24.2990    2.9245    4.8474 O.3         1 KDA      -0.3866
     31 C8         25.9323    2.6849    3.0626 C.3         1 KDA       0.0729
     32 O8         25.3225    3.8728    2.5691 O.3         1 KDA      -0.3924
     33 H1         25.9893   -4.8474    1.9016 H           1 KDA       0.0340
     34 H2         26.8878   -6.3499    1.6139 H           1 KDA       0.0340
     35 H3         28.5764   -5.1345    0.3099 H           1 KDA       0.0621
     36 H4         27.3335   -5.0430   -1.3281 H           1 KDA       0.2099
     37 H5         28.4775   -2.6895   -0.0386 H           1 KDA       0.0646
     38 H6         26.0842   -2.7687    0.2817 H           1 KDA       0.2100
     39 H7         29.7043   -3.5323    1.9186 H           1 KDA       0.0649
     40 H8         29.3872   -0.9773    1.5554 H           1 KDA       0.0642
     41 H9         30.3363   -2.1157    3.9515 H           1 KDA       0.2100
     42 H10        27.3699   -0.4304    2.8360 H           1 KDA       0.0570
     43 H11        28.8041    0.2477    3.6138 H           1 KDA       0.0570
     44 H12        28.8854   -7.4223    2.2735 H           1 KDA       0.0849
     45 H13        31.0589   -7.5974    1.5594 H           1 KDA       0.0331
     46 H14        32.7981   -6.1543    2.0450 H           1 KDA       0.0321
     47 H15        31.9523   -5.8098    3.5688 H           1 KDA       0.0321
     48 H16        31.5745   -4.8652    2.1110 H           1 KDA       0.0321
     49 H17        26.6243   -2.2624    6.7919 H           1 KDA       0.0527
     50 H18        24.5690   -1.3092    7.1949 H           1 KDA       0.1535
     51 H19        24.9069    1.2226    6.9738 H           1 KDA       0.0720
     52 H20        23.8299    0.4579    5.7822 H           1 KDA       0.0720
     53 H21        25.5824    0.3330    4.1163 H           1 KDA       0.0667
     54 H22        26.3045    3.0774    5.1589 H           1 KDA       0.0646
     55 H23        24.3373    3.9032    4.7830 H           1 KDA       0.2100
     56 H24        25.5509    1.8495    2.4708 H           1 KDA       0.0584
     57 H25        27.0138    2.7581    2.9131 H           1 KDA       0.0584
     58 H26        25.0766    3.6613    1.6407 H           1 KDA       0.2095
@<TRIPOS>BOND
     1     1     2  ar
     2     1     3  ar
     3     1     4   1
     4     4     5   1
     5     4    11   1
     6     4    16   1
     7     5     6   1
     8     6     7   1
     9     6     8   1
    10     8     9   1
    11     8    10   1
    12    10    11   1
    13    10    12   1
    14    12    13   1
    15    12    14   1
    16    14    15   1
    17    15    20   1
    18    16    17   1
    19    17    18   2
    20    18    19   1
    21    20    21   1
    22    20    24   1
    23    20    28   1
    24    21    22  ar
    25    21    23  ar
    26    24    25   2
    27    25    26   1
    28    26    27   1
    29    27    28   1
    30    27    29   1
    31    29    30   1
    32    29    31   1
    33    31    32   1
    34     5    33   1
    35     5    34   1
    36     6    35   1
    37     7    36   1
    38     8    37   1
    39     9    38   1
    40    10    39   1
    41    12    40   1
    42    13    41   1
    43    14    42   1
    44    14    43   1
    45    17    44   1
    46    18    45   1
    47    19    46   1
    48    19    47   1
    49    19    48   1
    50    24    49   1
    51    25    50   1
    52    26    51   1
    53    26    52   1
    54    27    53   1
    55    29    54   1
    56    30    55   1
    57    31    56   1
    58    31    57   1
    59    32    58   1
@<TRIPOS>SUBSTRUCTURE
     1  KDA      1

