@<TRIPOS>MOLECULE
3bpc_ligand_000
    58    59
SMALL
GAST_HUCK
****
This file was generated by PARSER (from files_GN.cpp)

@<TRIPOS>ATOM
      1 C1         31.0540   -0.9002    0.3565 C.2         1 KDA       0.1089
      2 O1A        31.1397    0.3609   -0.1111 O.co2       1 KDA      -0.5423
      3 O1B        32.2134   -1.4679    0.7629 O.co2       1 KDA      -0.5423
      4 C2         29.7359   -1.4739    0.7280 C.3         1 KDA       0.2378
      5 C3         28.6818   -1.0056   -0.3267 C.3         1 KDA       0.0399
      6 C4         27.3680   -1.8209   -0.2199 C.3         1 KDA       0.0884
      7 O4         26.4725   -1.4354   -1.2589 O.3         1 KDA      -0.3891
      8 C5         27.6654   -3.3406   -0.2911 C.3         1 KDA       0.1096
      9 O5         28.1836   -3.6644   -1.5794 O.3         1 KDA      -0.3866
     10 C6         28.6765   -3.7033    0.8349 C.3         1 KDA       0.1173
     11 O6         29.8714   -2.9106    0.6925 O.3         1 KDA      -0.3347
     12 C7         29.1335   -5.1944    0.8745 C.3         1 KDA       0.1055
     13 O7         28.1526   -6.0826    0.3395 O.3         1 KDA      -0.3869
     14 C8         29.5771   -5.6649    2.2943 C.3         1 KDA       0.0619
     15 O8         29.0010   -4.9419    3.4088 O.3         1 KDA      -0.4032
     16 O2         29.3133   -0.9934    2.0334 O.3         1 KDA      -0.3023
     17 C9         30.1255   -1.2581    3.0708 C.2         1 KDA       0.0369
     18 C10        30.8639   -0.3003    3.6603 C.2         1 KDA      -0.0824
     19 C11        30.8683    1.0866    3.2346 C.3         1 KDA      -0.0537
     20 C2         27.9886   -5.4874    4.2918 C.3         1 KDA       0.1781
     21 C1         26.6440   -5.4720    3.6618 C.2         1 KDA       0.0464
     22 O1B        25.4924   -5.3293    4.3585 O.co2       1 KDA      -0.5651
     23 O1A        26.4808   -5.8568    2.3886 O.co2       1 KDA      -0.5651
     24 C3         28.0108   -4.6172    5.4689 C.2         1 KDA      -0.0254
     25 C4         28.4188   -5.0402    6.6787 C.2         1 KDA      -0.0084
     26 C5         28.8678   -6.3971    6.9274 C.3         1 KDA       0.0514
     27 C6         29.2575   -7.1332    5.6109 C.3         1 KDA       0.0994
     28 O6         28.2336   -6.8796    4.6271 O.3         1 KDA      -0.3957
     29 C7         29.4839   -8.6673    5.7456 C.3         1 KDA       0.1076
     30 O7         30.1623   -9.1208    4.5711 O.3         1 KDA      -0.3866
     31 C8         28.1942   -9.5164    5.9224 C.3         1 KDA       0.0729
     32 O8         28.2581  -10.6926    5.1240 O.3         1 KDA      -0.3924
     33 H1         29.0781   -1.1270   -1.3386 H           1 KDA       0.0340
     34 H2         28.4522    0.0555   -0.1818 H           1 KDA       0.0340
     35 H3         26.8775   -1.5864    0.7312 H           1 KDA       0.0621
     36 H4         25.6106   -1.8347   -1.0160 H           1 KDA       0.2099
     37 H5         26.7301   -3.8905   -0.1442 H           1 KDA       0.0646
     38 H6         27.8764   -4.5669   -1.7854 H           1 KDA       0.2100
     39 H7         28.1819   -3.4632    1.7802 H           1 KDA       0.0649
     40 H8         29.9923   -5.3035    0.2035 H           1 KDA       0.0642
     41 H9         28.6701   -6.7771   -0.1265 H           1 KDA       0.2100
     42 H10        30.6519   -5.4818    2.3712 H           1 KDA       0.0570
     43 H11        29.4394   -6.7440    2.3867 H           1 KDA       0.0570
     44 H12        30.1686   -2.1855    3.4284 H           1 KDA       0.0849
     45 H13        31.4372   -0.5626    4.4339 H           1 KDA       0.0331
     46 H14        31.5539    1.6713    3.8582 H           1 KDA       0.0321
     47 H15        29.8604    1.5064    3.3237 H           1 KDA       0.0321
     48 H16        31.2016    1.1574    2.1964 H           1 KDA       0.0321
     49 H17        27.7452   -3.6642    5.3658 H           1 KDA       0.0527
     50 H18        28.3656   -4.4161    7.4457 H           1 KDA       0.1535
     51 H19        28.0594   -6.9235    7.4389 H           1 KDA       0.0720
     52 H20        29.7369   -6.3792    7.5906 H           1 KDA       0.0720
     53 H21        30.2020   -6.7064    5.2529 H           1 KDA       0.0667
     54 H22        30.1382   -8.8597    6.6025 H           1 KDA       0.0646
     55 H23        31.0861   -8.7847    4.6539 H           1 KDA       0.2100
     56 H24        27.3046   -8.9564    5.6274 H           1 KDA       0.0584
     57 H25        28.0712   -9.8307    6.9611 H           1 KDA       0.0584
     58 H26        28.6863  -10.4157    4.2808 H           1 KDA       0.2095
@<TRIPOS>BOND
     1     1     2  ar
     2     1     3  ar
     3     1     4   1
     4     4     5   1
     5     4    11   1
     6     4    16   1
     7     5     6   1
     8     6     7   1
     9     6     8   1
    10     8     9   1
    11     8    10   1
    12    10    11   1
    13    10    12   1
    14    12    13   1
    15    12    14   1
    16    14    15   1
    17    15    20   1
    18    16    17   1
    19    17    18   2
    20    18    19   1
    21    20    21   1
    22    20    24   1
    23    20    28   1
    24    21    22  ar
    25    21    23  ar
    26    24    25   2
    27    25    26   1
    28    26    27   1
    29    27    28   1
    30    27    29   1
    31    29    30   1
    32    29    31   1
    33    31    32   1
    34     5    33   1
    35     5    34   1
    36     6    35   1
    37     7    36   1
    38     8    37   1
    39     9    38   1
    40    10    39   1
    41    12    40   1
    42    13    41   1
    43    14    42   1
    44    14    43   1
    45    17    44   1
    46    18    45   1
    47    19    46   1
    48    19    47   1
    49    19    48   1
    50    24    49   1
    51    25    50   1
    52    26    51   1
    53    26    52   1
    54    27    53   1
    55    29    54   1
    56    30    55   1
    57    31    56   1
    58    31    57   1
    59    32    58   1
@<TRIPOS>SUBSTRUCTURE
     1  KDA      1

