@<TRIPOS>MOLECULE
3bpc_ligand_002
    58    59
SMALL
GAST_HUCK
****
This file was generated by PARSER (from files_GN.cpp)

@<TRIPOS>ATOM
      1 C1         31.1768   -2.0512    0.9080 C.2         1 KDA       0.1089
      2 O1A        31.3786   -3.3454    1.2457 O.co2       1 KDA      -0.5423
      3 O1B        32.1940   -1.3596    0.3306 O.co2       1 KDA      -0.5423
      4 C2         29.8557   -1.3799    1.1083 C.3         1 KDA       0.2378
      5 C3         29.0541   -1.6012   -0.2155 C.3         1 KDA       0.0399
      6 C4         27.5451   -1.2849   -0.0707 C.3         1 KDA       0.0884
      7 O4         26.8716   -1.6747   -1.2661 O.3         1 KDA      -0.3891
      8 C5         26.9516   -2.0068    1.1709 C.3         1 KDA       0.1096
      9 O5         26.9464   -3.4229    0.9817 O.3         1 KDA      -0.3866
     10 C6         27.7802   -1.6283    2.4304 C.3         1 KDA       0.1173
     11 O6         29.1662   -2.0022    2.2243 O.3         1 KDA      -0.3347
     12 C7         27.1701   -2.2095    3.7565 C.3         1 KDA       0.1055
     13 O7         26.6895   -1.1455    4.5880 O.3         1 KDA      -0.3869
     14 C8         28.1260   -3.0873    4.6056 C.3         1 KDA       0.0619
     15 O8         28.5720   -4.2480    3.8760 O.3         1 KDA      -0.4032
     16 O2         29.9719    0.0543    1.3571 O.3         1 KDA      -0.3023
     17 C9         30.8653    0.4903    2.2649 C.2         1 KDA       0.0369
     18 C10        30.5446    1.0938    3.4224 C.2         1 KDA      -0.0824
     19 C11        29.2052    1.2043    3.9579 C.3         1 KDA      -0.0537
     20 C2         27.9934   -5.5646    4.0560 C.3         1 KDA       0.1781
     21 C1         26.5900   -5.6234    3.5636 C.2         1 KDA       0.0464
     22 O1B        26.3438   -5.6009    2.2377 O.co2       1 KDA      -0.5651
     23 O1A        25.5497   -5.2398    4.3403 O.co2       1 KDA      -0.5651
     24 C3         28.1122   -6.0360    5.4388 C.2         1 KDA      -0.0254
     25 C4         28.9940   -6.9715    5.8221 C.2         1 KDA      -0.0084
     26 C5         29.9259   -7.6103    4.9010 C.3         1 KDA       0.0514
     27 C6         30.0434   -6.8365    3.5583 C.3         1 KDA       0.0994
     28 O6         28.7263   -6.4298    3.1442 O.3         1 KDA      -0.3957
     29 C7         30.7498   -7.6167    2.4046 C.3         1 KDA       0.1076
     30 O7         30.9928   -6.6875    1.3494 O.3         1 KDA      -0.3866
     31 C8         29.9900   -8.8488    1.8409 C.3         1 KDA       0.0729
     32 O8         28.7803   -8.4912    1.1800 O.3         1 KDA      -0.3924
     33 H1         29.1374   -2.6476   -0.5298 H           1 KDA       0.0340
     34 H2         29.4761   -0.9823   -1.0135 H           1 KDA       0.0340
     35 H3         27.4173   -0.2063    0.0402 H           1 KDA       0.0621
     36 H4         25.9829   -1.9814   -0.9931 H           1 KDA       0.2099
     37 H5         25.9134   -1.6779    1.3075 H           1 KDA       0.0646
     38 H6         26.1193   -3.5782    0.4724 H           1 KDA       0.2100
     39 H7         27.7407   -0.5431    2.5130 H           1 KDA       0.0649
     40 H8         26.2873   -2.8176    3.5283 H           1 KDA       0.0642
     41 H9         25.9674   -0.7224    4.0638 H           1 KDA       0.2100
     42 H10        27.6425   -3.3555    5.5501 H           1 KDA       0.0570
     43 H11        29.0083   -2.4954    4.8506 H           1 KDA       0.0570
     44 H12        31.8190    0.4929    2.0011 H           1 KDA       0.0849
     45 H13        31.2867    1.4796    3.9613 H           1 KDA       0.0331
     46 H14        29.2019    1.8322    4.8506 H           1 KDA       0.0321
     47 H15        28.8477    0.2170    4.2464 H           1 KDA       0.0321
     48 H16        28.5316    1.6455    3.2230 H           1 KDA       0.0321
     49 H17        27.5501   -5.6155    6.1425 H           1 KDA       0.0527
     50 H18        29.0090   -7.2573    6.7705 H           1 KDA       0.1535
     51 H19        29.5737   -8.6316    4.7382 H           1 KDA       0.0720
     52 H20        30.9137   -7.6600    5.3697 H           1 KDA       0.0720
     53 H21        30.6398   -5.9373    3.7435 H           1 KDA       0.0667
     54 H22        31.7217   -7.9574    2.7682 H           1 KDA       0.0646
     55 H23        30.9983   -7.2033    0.5187 H           1 KDA       0.2100
     56 H24        29.7524   -9.5555    2.6388 H           1 KDA       0.0584
     57 H25        30.6302   -9.3651    1.1231 H           1 KDA       0.0584
     58 H26        29.0584   -8.1915    0.2842 H           1 KDA       0.2095
@<TRIPOS>BOND
     1     1     2  ar
     2     1     3  ar
     3     1     4   1
     4     4     5   1
     5     4    11   1
     6     4    16   1
     7     5     6   1
     8     6     7   1
     9     6     8   1
    10     8     9   1
    11     8    10   1
    12    10    11   1
    13    10    12   1
    14    12    13   1
    15    12    14   1
    16    14    15   1
    17    15    20   1
    18    16    17   1
    19    17    18   2
    20    18    19   1
    21    20    21   1
    22    20    24   1
    23    20    28   1
    24    21    22  ar
    25    21    23  ar
    26    24    25   2
    27    25    26   1
    28    26    27   1
    29    27    28   1
    30    27    29   1
    31    29    30   1
    32    29    31   1
    33    31    32   1
    34     5    33   1
    35     5    34   1
    36     6    35   1
    37     7    36   1
    38     8    37   1
    39     9    38   1
    40    10    39   1
    41    12    40   1
    42    13    41   1
    43    14    42   1
    44    14    43   1
    45    17    44   1
    46    18    45   1
    47    19    46   1
    48    19    47   1
    49    19    48   1
    50    24    49   1
    51    25    50   1
    52    26    51   1
    53    26    52   1
    54    27    53   1
    55    29    54   1
    56    30    55   1
    57    31    56   1
    58    31    57   1
    59    32    58   1
@<TRIPOS>SUBSTRUCTURE
     1  KDA      1

