@<TRIPOS>MOLECULE
3bpc_ligand_027
    58    59
SMALL
GAST_HUCK
****
This file was generated by PARSER (from files_GN.cpp)

@<TRIPOS>ATOM
      1 C1         29.7240   -0.3980   -0.3716 C.2         1 KDA       0.1089
      2 O1A        29.1810   -0.5593   -1.5995 O.co2       1 KDA      -0.5423
      3 O1B        30.8970    0.2678   -0.3183 O.co2       1 KDA      -0.5423
      4 C2         29.2852   -1.2474    0.7662 C.3         1 KDA       0.2378
      5 C3         27.7239   -1.2250    0.9129 C.3         1 KDA       0.0399
      6 C4         27.2254   -2.3998    1.7919 C.3         1 KDA       0.0884
      7 O4         25.7986   -2.4098    1.8514 O.3         1 KDA      -0.3891
      8 C5         27.7666   -3.7555    1.2580 C.3         1 KDA       0.1096
      9 O5         27.2369   -4.0341   -0.0406 O.3         1 KDA      -0.3866
     10 C6         29.3203   -3.7018    1.1856 C.3         1 KDA       0.1173
     11 O6         29.7043   -2.5729    0.3671 O.3         1 KDA      -0.3347
     12 C7         29.9738   -4.9836    0.5788 C.3         1 KDA       0.1055
     13 O7         29.4319   -6.1634    1.1735 O.3         1 KDA      -0.3869
     14 C8         31.5170   -5.0359    0.7516 C.3         1 KDA       0.0619
     15 O8         32.1205   -3.8758    0.1471 O.3         1 KDA      -0.4032
     16 O2         29.9998   -0.9353    2.0003 O.3         1 KDA      -0.3023
     17 C9         29.8697    0.2861    2.5496 C.2         1 KDA       0.0369
     18 C10        30.9229    1.0456    2.8912 C.2         1 KDA      -0.0824
     19 C11        32.3006    0.6218    2.7908 C.3         1 KDA      -0.0537
     20 C2         33.4272   -3.4337    0.5753 C.3         1 KDA       0.1781
     21 C1         33.4132   -2.8089    1.9186 C.2         1 KDA       0.0464
     22 O1B        34.5539   -2.3241    2.4617 O.co2       1 KDA      -0.5651
     23 O1A        32.2907   -2.7319    2.6627 O.co2       1 KDA      -0.5651
     24 C3         33.8016   -2.4103   -0.3940 C.2         1 KDA      -0.0254
     25 C4         34.8262   -2.5602   -1.2491 C.2         1 KDA      -0.0084
     26 C5         35.6486   -3.7549   -1.2875 C.3         1 KDA       0.0514
     27 C6         34.9876   -4.9656   -0.5573 C.3         1 KDA       0.0994
     28 O6         34.3769   -4.5233    0.6721 O.3         1 KDA      -0.3957
     29 C7         35.9659   -6.1397   -0.2526 C.3         1 KDA       0.1076
     30 O7         35.1924   -7.2399    0.2293 O.3         1 KDA      -0.3866
     31 C8         37.0769   -5.8033    0.7793 C.3         1 KDA       0.0729
     32 O8         37.7649   -6.9777    1.1938 O.3         1 KDA      -0.3924
     33 H1         27.2456   -1.3176   -0.0642 H           1 KDA       0.0340
     34 H2         27.3851   -0.2797    1.3380 H           1 KDA       0.0340
     35 H3         27.5886   -2.2511    2.8135 H           1 KDA       0.0621
     36 H4         25.4902   -2.5247    0.9259 H           1 KDA       0.2099
     37 H5         27.4511   -4.5551    1.9349 H           1 KDA       0.0646
     38 H6         26.2636   -4.0572    0.0577 H           1 KDA       0.2100
     39 H7         29.7025   -3.5743    2.2016 H           1 KDA       0.0649
     40 H8         29.7458   -5.0195   -0.4901 H           1 KDA       0.0642
     41 H9         29.7830   -6.8961    0.6247 H           1 KDA       0.2100
     42 H10        31.9107   -5.9290    0.2556 H           1 KDA       0.0570
     43 H11        31.7526   -5.1107    1.8167 H           1 KDA       0.0570
     44 H12        28.9612    0.6474    2.7148 H           1 KDA       0.0849
     45 H13        30.7404    1.9537    3.2531 H           1 KDA       0.0331
     46 H14        32.9764    1.4417    3.0344 H           1 KDA       0.0321
     47 H15        32.5324    0.2818    1.7841 H           1 KDA       0.0321
     48 H16        32.4796   -0.1870    3.4949 H           1 KDA       0.0321
     49 H17        33.2503   -1.5864   -0.4601 H           1 KDA       0.0527
     50 H18        35.0570   -1.8052   -1.8542 H           1 KDA       0.1535
     51 H19        36.6054   -3.4978   -0.8317 H           1 KDA       0.0720
     52 H20        35.8337   -4.0293   -2.3297 H           1 KDA       0.0720
     53 H21        34.1934   -5.3562   -1.2036 H           1 KDA       0.0667
     54 H22        36.4389   -6.4593   -1.1847 H           1 KDA       0.0646
     55 H23        35.8216   -7.9908    0.2910 H           1 KDA       0.2100
     56 H24        36.6475   -5.3374    1.6673 H           1 KDA       0.0584
     57 H25        37.8073   -5.1204    0.3448 H           1 KDA       0.0584
     58 H26        38.4123   -6.6714    1.8634 H           1 KDA       0.2095
@<TRIPOS>BOND
     1     1     2  ar
     2     1     3  ar
     3     1     4   1
     4     4     5   1
     5     4    11   1
     6     4    16   1
     7     5     6   1
     8     6     7   1
     9     6     8   1
    10     8     9   1
    11     8    10   1
    12    10    11   1
    13    10    12   1
    14    12    13   1
    15    12    14   1
    16    14    15   1
    17    15    20   1
    18    16    17   1
    19    17    18   2
    20    18    19   1
    21    20    21   1
    22    20    24   1
    23    20    28   1
    24    21    22  ar
    25    21    23  ar
    26    24    25   2
    27    25    26   1
    28    26    27   1
    29    27    28   1
    30    27    29   1
    31    29    30   1
    32    29    31   1
    33    31    32   1
    34     5    33   1
    35     5    34   1
    36     6    35   1
    37     7    36   1
    38     8    37   1
    39     9    38   1
    40    10    39   1
    41    12    40   1
    42    13    41   1
    43    14    42   1
    44    14    43   1
    45    17    44   1
    46    18    45   1
    47    19    46   1
    48    19    47   1
    49    19    48   1
    50    24    49   1
    51    25    50   1
    52    26    51   1
    53    26    52   1
    54    27    53   1
    55    29    54   1
    56    30    55   1
    57    31    56   1
    58    31    57   1
    59    32    58   1
@<TRIPOS>SUBSTRUCTURE
     1  KDA      1

