@<TRIPOS>MOLECULE
3bpc_ligand_012
    58    59
SMALL
GAST_HUCK
****
This file was generated by PARSER (from files_GN.cpp)

@<TRIPOS>ATOM
      1 C1         26.1213   -3.6099    3.6398 C.2         1 KDA       0.1089
      2 O1A        25.0114   -4.3733    3.6932 O.co2       1 KDA      -0.5423
      3 O1B        26.1386   -2.4843    4.3847 O.co2       1 KDA      -0.5423
      4 C2         27.2669   -3.9164    2.7598 C.3         1 KDA       0.2378
      5 C3         27.2467   -5.4111    2.2566 C.3         1 KDA       0.0399
      6 C4         28.2557   -5.6846    1.1038 C.3         1 KDA       0.0884
      7 O4         28.0664   -7.0226    0.6148 O.3         1 KDA      -0.3891
      8 C5         28.0737   -4.6375   -0.0373 C.3         1 KDA       0.1096
      9 O5         26.8155   -4.8544   -0.6767 O.3         1 KDA      -0.3866
     10 C6         28.1615   -3.1969    0.5831 C.3         1 KDA       0.1173
     11 O6         27.1324   -3.0446    1.6045 O.3         1 KDA      -0.3347
     12 C7         28.0957   -2.0301   -0.4565 C.3         1 KDA       0.1055
     13 O7         27.1301   -2.2775   -1.4820 O.3         1 KDA      -0.3869
     14 C8         29.4826   -1.6601   -1.1044 C.3         1 KDA       0.0619
     15 O8         30.4833   -2.6723   -0.8562 O.3         1 KDA      -0.4032
     16 O2         28.4748   -3.4873    3.4525 O.3         1 KDA      -0.3023
     17 C9         29.2057   -4.3801    4.1316 C.2         1 KDA       0.0369
     18 C10        29.1087   -4.5367    5.4692 C.2         1 KDA      -0.0824
     19 C11        28.1411   -3.8383    6.2987 C.3         1 KDA      -0.0537
     20 C2         31.7089   -2.4384   -0.1392 C.3         1 KDA       0.1781
     21 C1         31.5505   -1.4390    0.9567 C.2         1 KDA       0.0464
     22 O1B        31.6163   -0.1017    0.7190 O.co2       1 KDA      -0.5651
     23 O1A        30.9010   -1.8205    2.0880 O.co2       1 KDA      -0.5651
     24 C3         32.7649   -2.0659   -1.0878 C.2         1 KDA      -0.0254
     25 C4         33.7196   -2.9438   -1.4624 C.2         1 KDA      -0.0084
     26 C5         33.8142   -4.3028   -0.9538 C.3         1 KDA       0.0514
     27 C6         32.4956   -4.7621   -0.2748 C.3         1 KDA       0.0994
     28 O6         32.0282   -3.6774    0.5621 O.3         1 KDA      -0.3957
     29 C7         32.5687   -6.1042    0.5104 C.3         1 KDA       0.1076
     30 O7         31.4163   -6.1768    1.3662 O.3         1 KDA      -0.3866
     31 C8         33.8350   -6.3663    1.3708 C.3         1 KDA       0.0729
     32 O8         34.1039   -5.2629    2.2412 O.3         1 KDA      -0.3924
     33 H1         26.2434   -5.6346    1.8742 H           1 KDA       0.0340
     34 H2         27.4392   -6.0978    3.0835 H           1 KDA       0.0340
     35 H3         29.2833   -5.6147    1.4929 H           1 KDA       0.0621
     36 H4         28.8066   -7.1711   -0.0164 H           1 KDA       0.2099
     37 H5         28.8648   -4.7974   -0.7794 H           1 KDA       0.0646
     38 H6         27.0361   -5.1410   -1.5901 H           1 KDA       0.2100
     39 H7         29.1352   -3.0852    1.0854 H           1 KDA       0.0649
     40 H8         27.7447   -1.1375    0.0826 H           1 KDA       0.0642
     41 H9         26.3259   -2.5938   -1.0195 H           1 KDA       0.2100
     42 H10        29.8099   -0.6816   -0.7176 H           1 KDA       0.0570
     43 H11        29.3844   -1.5599   -2.1977 H           1 KDA       0.0570
     44 H12        29.9106   -4.8903    3.6508 H           1 KDA       0.0849
     45 H13        29.7482   -5.1679    5.9123 H           1 KDA       0.0331
     46 H14        28.2848   -4.1265    7.3592 H           1 KDA       0.0321
     47 H15        27.1208   -4.1058    5.9807 H           1 KDA       0.0321
     48 H16        28.2840   -2.7487    6.1976 H           1 KDA       0.0321
     49 H17        32.7468   -1.1646   -1.5297 H           1 KDA       0.0527
     50 H18        34.4193   -2.6334   -2.1104 H           1 KDA       0.1535
     51 H19        34.6460   -4.3329   -0.2468 H           1 KDA       0.0720
     52 H20        34.0318   -4.9769   -1.7907 H           1 KDA       0.0720
     53 H21        31.7435   -4.9252   -1.0657 H           1 KDA       0.0667
     54 H22        32.4790   -6.9365   -0.2112 H           1 KDA       0.0646
     55 H23        31.3333   -7.1340    1.6026 H           1 KDA       0.2100
     56 H24        34.7082   -6.5375    0.7286 H           1 KDA       0.0584
     57 H25        33.6917   -7.2631    1.9765 H           1 KDA       0.0584
     58 H26        34.9007   -5.5372    2.7527 H           1 KDA       0.2095
@<TRIPOS>BOND
     1     1     2  ar
     2     1     3  ar
     3     1     4   1
     4     4     5   1
     5     4    11   1
     6     4    16   1
     7     5     6   1
     8     6     7   1
     9     6     8   1
    10     8     9   1
    11     8    10   1
    12    10    11   1
    13    10    12   1
    14    12    13   1
    15    12    14   1
    16    14    15   1
    17    15    20   1
    18    16    17   1
    19    17    18   2
    20    18    19   1
    21    20    21   1
    22    20    24   1
    23    20    28   1
    24    21    22  ar
    25    21    23  ar
    26    24    25   2
    27    25    26   1
    28    26    27   1
    29    27    28   1
    30    27    29   1
    31    29    30   1
    32    29    31   1
    33    31    32   1
    34     5    33   1
    35     5    34   1
    36     6    35   1
    37     7    36   1
    38     8    37   1
    39     9    38   1
    40    10    39   1
    41    12    40   1
    42    13    41   1
    43    14    42   1
    44    14    43   1
    45    17    44   1
    46    18    45   1
    47    19    46   1
    48    19    47   1
    49    19    48   1
    50    24    49   1
    51    25    50   1
    52    26    51   1
    53    26    52   1
    54    27    53   1
    55    29    54   1
    56    30    55   1
    57    31    56   1
    58    31    57   1
    59    32    58   1
@<TRIPOS>SUBSTRUCTURE
     1  KDA      1

