@<TRIPOS>MOLECULE
3bpc_ligand_003
    58    59
SMALL
GAST_HUCK
****
This file was generated by PARSER (from files_GN.cpp)

@<TRIPOS>ATOM
      1 C1         31.0980   -1.0899    0.2855 C.2         1 KDA       0.1089
      2 O1A        31.2108    0.2092   -0.0637 O.co2       1 KDA      -0.5423
      3 O1B        32.2354   -1.7246    0.6576 O.co2       1 KDA      -0.5423
      4 C2         29.7638   -1.6441    0.6531 C.3         1 KDA       0.2378
      5 C3         28.6911   -1.0493   -0.3204 C.3         1 KDA       0.0399
      6 C4         27.3397   -1.7982   -0.2007 C.3         1 KDA       0.0884
      7 O4         26.4171   -1.3064   -1.1658 O.3         1 KDA      -0.3891
      8 C5         27.5546   -3.3198   -0.3894 C.3         1 KDA       0.1096
      9 O5         28.0281   -3.5611   -1.7150 O.3         1 KDA      -0.3866
     10 C6         28.5686   -3.8243    0.6740 C.3         1 KDA       0.1173
     11 O6         29.8127   -3.0941    0.5155 O.3         1 KDA      -0.3347
     12 C7         28.8767   -5.3522    0.6115 C.3         1 KDA       0.1055
     13 O7         27.8917   -6.1016   -0.1045 O.3         1 KDA      -0.3869
     14 C8         28.9901   -5.9513    2.0385 C.3         1 KDA       0.0619
     15 O8         29.3476   -7.3470    1.9990 O.3         1 KDA      -0.4032
     16 O2         29.4003   -1.2373    1.9999 O.3         1 KDA      -0.3023
     17 C9         30.2805   -1.4974    2.9805 C.2         1 KDA       0.0369
     18 C10        30.9852   -0.5132    3.5669 C.2         1 KDA      -0.0824
     19 C11        30.8560    0.8828    3.2168 C.3         1 KDA      -0.0537
     20 C2         30.6149   -7.8538    2.4914 C.3         1 KDA       0.1781
     21 C1         30.4202   -9.3123    2.6772 C.2         1 KDA       0.0464
     22 O1B        31.4705  -10.1585    2.7480 O.co2       1 KDA      -0.5651
     23 O1A        29.2095   -9.8200    3.0038 O.co2       1 KDA      -0.5651
     24 C3         31.0286   -7.2731    3.7684 C.2         1 KDA      -0.0254
     25 C4         32.0758   -6.4375    3.8638 C.2         1 KDA      -0.0084
     26 C5         32.9071   -6.0551    2.7296 C.3         1 KDA       0.0514
     27 C6         32.3242   -6.4845    1.3409 C.3         1 KDA       0.0994
     28 O6         31.6368   -7.7507    1.4685 O.3         1 KDA      -0.3957
     29 C7         33.3793   -6.6302    0.2061 C.3         1 KDA       0.1076
     30 O7         34.5577   -7.2597    0.7133 O.3         1 KDA      -0.3866
     31 C8         33.7465   -5.3007   -0.4995 C.3         1 KDA       0.0729
     32 O8         32.7395   -4.9058   -1.4336 O.3         1 KDA      -0.3924
     33 H1         29.0429   -1.1239   -1.3559 H           1 KDA       0.0340
     34 H2         28.5332    0.0107   -0.1030 H           1 KDA       0.0340
     35 H3         26.9083   -1.6064    0.7860 H           1 KDA       0.0621
     36 H4         25.5716   -1.7463   -0.9410 H           1 KDA       0.2099
     37 H5         26.5972   -3.8363   -0.2610 H           1 KDA       0.0646
     38 H6         27.7372   -4.4600   -1.9555 H           1 KDA       0.2100
     39 H7         28.1431   -3.5991    1.6583 H           1 KDA       0.0649
     40 H8         29.8288   -5.5015    0.0952 H           1 KDA       0.0642
     41 H9         28.1098   -5.9813   -1.0555 H           1 KDA       0.2100
     42 H10        28.0110   -5.8946    2.5241 H           1 KDA       0.0570
     43 H11        29.6790   -5.3516    2.6364 H           1 KDA       0.0570
     44 H12        30.4094   -2.4334    3.2871 H           1 KDA       0.0849
     45 H13        31.6143   -0.7631    4.2909 H           1 KDA       0.0331
     46 H14        31.5304    1.4883    3.8257 H           1 KDA       0.0321
     47 H15        29.8324    1.2265    3.3901 H           1 KDA       0.0321
     48 H16        31.1081    1.0350    2.1648 H           1 KDA       0.0321
     49 H17        30.4725   -7.4327    4.5760 H           1 KDA       0.0527
     50 H18        32.3125   -6.0766    4.7609 H           1 KDA       0.1535
     51 H19        33.8895   -6.5034    2.8972 H           1 KDA       0.0720
     52 H20        33.0261   -4.9676    2.7381 H           1 KDA       0.0720
     53 H21        31.6017   -5.7342    1.0216 H           1 KDA       0.0667
     54 H22        32.9671   -7.2971   -0.5504 H           1 KDA       0.0646
     55 H23        35.1155   -7.4530   -0.0699 H           1 KDA       0.2100
     56 H24        34.6734   -5.4246   -1.0580 H           1 KDA       0.0584
     57 H25        33.8953   -4.4994    0.2278 H           1 KDA       0.0584
     58 H26        31.9844   -4.5958   -0.8927 H           1 KDA       0.2095
@<TRIPOS>BOND
     1     1     2  ar
     2     1     3  ar
     3     1     4   1
     4     4     5   1
     5     4    11   1
     6     4    16   1
     7     5     6   1
     8     6     7   1
     9     6     8   1
    10     8     9   1
    11     8    10   1
    12    10    11   1
    13    10    12   1
    14    12    13   1
    15    12    14   1
    16    14    15   1
    17    15    20   1
    18    16    17   1
    19    17    18   2
    20    18    19   1
    21    20    21   1
    22    20    24   1
    23    20    28   1
    24    21    22  ar
    25    21    23  ar
    26    24    25   2
    27    25    26   1
    28    26    27   1
    29    27    28   1
    30    27    29   1
    31    29    30   1
    32    29    31   1
    33    31    32   1
    34     5    33   1
    35     5    34   1
    36     6    35   1
    37     7    36   1
    38     8    37   1
    39     9    38   1
    40    10    39   1
    41    12    40   1
    42    13    41   1
    43    14    42   1
    44    14    43   1
    45    17    44   1
    46    18    45   1
    47    19    46   1
    48    19    47   1
    49    19    48   1
    50    24    49   1
    51    25    50   1
    52    26    51   1
    53    26    52   1
    54    27    53   1
    55    29    54   1
    56    30    55   1
    57    31    56   1
    58    31    57   1
    59    32    58   1
@<TRIPOS>SUBSTRUCTURE
     1  KDA      1

