@<TRIPOS>MOLECULE
3bpc_ligand_013
    58    59
SMALL
GAST_HUCK
****
This file was generated by PARSER (from files_GN.cpp)

@<TRIPOS>ATOM
      1 C1         18.2756   -2.3003    4.8081 C.2         1 KDA       0.1089
      2 O1A        18.5179   -0.9666    4.7768 O.co2       1 KDA      -0.5423
      3 O1B        17.1013   -2.7081    5.3365 O.co2       1 KDA      -0.5423
      4 C2         19.3573   -3.2894    4.5304 C.3         1 KDA       0.2378
      5 C3         18.7172   -4.5121    3.7967 C.3         1 KDA       0.0399
      6 C4         19.7983   -5.4814    3.2575 C.3         1 KDA       0.0884
      7 O4         19.1761   -6.5188    2.5057 O.3         1 KDA      -0.3891
      8 C5         20.8418   -4.7322    2.3949 C.3         1 KDA       0.1096
      9 O5         20.2325   -4.3404    1.1643 O.3         1 KDA      -0.3866
     10 C6         21.4384   -3.5215    3.1784 C.3         1 KDA       0.1173
     11 O6         20.3740   -2.6783    3.6880 O.3         1 KDA      -0.3347
     12 C7         22.4347   -2.6361    2.3414 C.3         1 KDA       0.1055
     13 O7         22.5750   -3.0676    0.9850 O.3         1 KDA      -0.3869
     14 C8         23.8598   -2.5186    2.9433 C.3         1 KDA       0.0619
     15 O8         24.6893   -3.6367    2.5394 O.3         1 KDA      -0.4032
     16 O2         19.9301   -3.7496    5.7865 O.3         1 KDA      -0.3023
     17 C9         20.3410   -2.8355    6.6950 C.2         1 KDA       0.0369
     18 C10        20.9826   -3.1989    7.8150 C.2         1 KDA      -0.0824
     19 C11        21.3550   -4.5620    8.1227 C.3         1 KDA      -0.0537
     20 C2         26.1277   -3.6122    2.7366 C.3         1 KDA       0.1781
     21 C1         26.4251   -4.9227    3.3656 C.2         1 KDA       0.0464
     22 O1B        27.5043   -5.6668    3.0044 O.co2       1 KDA      -0.5651
     23 O1A        25.6814   -5.3628    4.4027 O.co2       1 KDA      -0.5651
     24 C3         26.6366   -2.5816    3.6519 C.2         1 KDA      -0.0254
     25 C4         27.5666   -1.6907    3.2829 C.2         1 KDA      -0.0084
     26 C5         28.1799   -1.6891    1.9720 C.3         1 KDA       0.0514
     27 C6         27.3276   -2.4206    0.8895 C.3         1 KDA       0.0994
     28 O6         26.7644   -3.6376    1.4336 O.3         1 KDA      -0.3957
     29 C7         28.1656   -2.7444   -0.3952 C.3         1 KDA       0.1076
     30 O7         27.3635   -2.6529   -1.5687 O.3         1 KDA      -0.3866
     31 C8         28.8811   -4.1212   -0.3599 C.3         1 KDA       0.0729
     32 O8         29.6137   -4.3573   -1.5556 O.3         1 KDA      -0.3924
     33 H1         18.1092   -4.1621    2.9562 H           1 KDA       0.0340
     34 H2         18.0593   -5.0549    4.4802 H           1 KDA       0.0340
     35 H3         20.3012   -5.9442    4.1049 H           1 KDA       0.0621
     36 H4         19.8794   -6.9076    1.9455 H           1 KDA       0.2099
     37 H5         21.6456   -5.4292    2.1478 H           1 KDA       0.0646
     38 H6         19.7328   -3.5247    1.3679 H           1 KDA       0.2100
     39 H7         21.9764   -3.9290    4.0375 H           1 KDA       0.0649
     40 H8         22.0333   -1.6151    2.2919 H           1 KDA       0.0642
     41 H9         23.0764   -2.3545    0.5366 H           1 KDA       0.2100
     42 H10        23.7968   -2.4974    4.0386 H           1 KDA       0.0570
     43 H11        24.3134   -1.5845    2.6103 H           1 KDA       0.0570
     44 H12        20.1452   -1.8685    6.5589 H           1 KDA       0.0849
     45 H13        21.2211   -2.4864    8.4674 H           1 KDA       0.0331
     46 H14        21.8705   -4.6082    9.0850 H           1 KDA       0.0321
     47 H15        22.0266   -4.9461    7.3531 H           1 KDA       0.0321
     48 H16        20.4617   -5.1884    8.1738 H           1 KDA       0.0321
     49 H17        26.2739   -2.5370    4.5811 H           1 KDA       0.0527
     50 H18        27.9016   -1.0440    3.9602 H           1 KDA       0.1535
     51 H19        29.1611   -2.1607    2.0711 H           1 KDA       0.0720
     52 H20        28.3364   -0.6523    1.6534 H           1 KDA       0.0720
     53 H21        26.5004   -1.7635    0.6098 H           1 KDA       0.0667
     54 H22        28.9284   -1.9723   -0.5172 H           1 KDA       0.0646
     55 H23        26.4678   -2.9533   -1.3128 H           1 KDA       0.2100
     56 H24        28.1640   -4.9308   -0.2314 H           1 KDA       0.0584
     57 H25        29.5861   -4.1504    0.4705 H           1 KDA       0.0584
     58 H26        28.9668   -4.7575   -2.1735 H           1 KDA       0.2095
@<TRIPOS>BOND
     1     1     2  ar
     2     1     3  ar
     3     1     4   1
     4     4     5   1
     5     4    11   1
     6     4    16   1
     7     5     6   1
     8     6     7   1
     9     6     8   1
    10     8     9   1
    11     8    10   1
    12    10    11   1
    13    10    12   1
    14    12    13   1
    15    12    14   1
    16    14    15   1
    17    15    20   1
    18    16    17   1
    19    17    18   2
    20    18    19   1
    21    20    21   1
    22    20    24   1
    23    20    28   1
    24    21    22  ar
    25    21    23  ar
    26    24    25   2
    27    25    26   1
    28    26    27   1
    29    27    28   1
    30    27    29   1
    31    29    30   1
    32    29    31   1
    33    31    32   1
    34     5    33   1
    35     5    34   1
    36     6    35   1
    37     7    36   1
    38     8    37   1
    39     9    38   1
    40    10    39   1
    41    12    40   1
    42    13    41   1
    43    14    42   1
    44    14    43   1
    45    17    44   1
    46    18    45   1
    47    19    46   1
    48    19    47   1
    49    19    48   1
    50    24    49   1
    51    25    50   1
    52    26    51   1
    53    26    52   1
    54    27    53   1
    55    29    54   1
    56    30    55   1
    57    31    56   1
    58    31    57   1
    59    32    58   1
@<TRIPOS>SUBSTRUCTURE
     1  KDA      1

