@<TRIPOS>MOLECULE
3bpc_ligand_008
    58    59
SMALL
GAST_HUCK
****
This file was generated by PARSER (from files_GN.cpp)

@<TRIPOS>ATOM
      1 C1         25.7170   -3.2298    2.9103 C.2         1 KDA       0.1089
      2 O1A        25.3809   -2.0089    3.4093 O.co2       1 KDA      -0.5423
      3 O1B        25.1069   -4.2859    3.4828 O.co2       1 KDA      -0.5423
      4 C2         27.0269   -3.4064    2.2498 C.3         1 KDA       0.2378
      5 C3         26.9254   -4.6344    1.3088 C.3         1 KDA       0.0399
      6 C4         28.1719   -4.7778    0.3905 C.3         1 KDA       0.0884
      7 O4         27.9890   -5.8961   -0.4803 O.3         1 KDA      -0.3891
      8 C5         28.4219   -3.4555   -0.4001 C.3         1 KDA       0.1096
      9 O5         27.4257   -3.2520   -1.4159 O.3         1 KDA      -0.3866
     10 C6         28.5112   -2.2575    0.6312 C.3         1 KDA       0.1173
     11 O6         27.3186   -2.2217    1.4661 O.3         1 KDA      -0.3347
     12 C7         28.7396   -0.8592   -0.0445 C.3         1 KDA       0.1055
     13 O7         27.7424   -0.6244   -1.0620 O.3         1 KDA      -0.3869
     14 C8         30.1792   -0.6539   -0.6425 C.3         1 KDA       0.0619
     15 O8         31.2010   -0.1246    0.2475 O.3         1 KDA      -0.4032
     16 O2         28.0916   -3.7234    3.1878 O.3         1 KDA      -0.3023
     17 C9         27.9872   -3.3838    4.4798 C.2         1 KDA       0.0369
     18 C10        27.7718   -4.3251    5.4216 C.2         1 KDA      -0.0824
     19 C11        27.6887   -5.7401    5.1239 C.3         1 KDA      -0.0537
     20 C2         31.4893   -0.7305    1.5305 C.3         1 KDA       0.1781
     21 C1         30.4464   -0.3770    2.5271 C.2         1 KDA       0.0464
     22 O1B        30.1808    0.9198    2.8161 O.co2       1 KDA      -0.5651
     23 O1A        29.6493   -1.3285    3.0743 O.co2       1 KDA      -0.5651
     24 C3         32.7370   -0.1095    1.9892 C.2         1 KDA      -0.0254
     25 C4         33.8409   -0.8287    2.2577 C.2         1 KDA      -0.0084
     26 C5         33.8865   -2.2681    2.1412 C.3         1 KDA       0.0514
     27 C6         32.8419   -2.7576    1.0877 C.3         1 KDA       0.0994
     28 O6         31.5479   -2.1975    1.4470 O.3         1 KDA      -0.3957
     29 C7         32.7227   -4.3093    1.0254 C.3         1 KDA       0.1076
     30 O7         33.8687   -4.9537    1.5971 O.3         1 KDA      -0.3866
     31 C8         32.5769   -4.8214   -0.4337 C.3         1 KDA       0.0729
     32 O8         32.7927   -6.2399   -0.4823 O.3         1 KDA      -0.3924
     33 H1         26.0465   -4.5533    0.6692 H           1 KDA       0.0340
     34 H2         26.8394   -5.5546    1.8932 H           1 KDA       0.0340
     35 H3         29.0614   -4.9850    1.0073 H           1 KDA       0.0621
     36 H4         28.0173   -5.5348   -1.3922 H           1 KDA       0.2099
     37 H5         29.3841   -3.5558   -0.9229 H           1 KDA       0.0646
     38 H6         26.5623   -3.3087   -0.9546 H           1 KDA       0.2100
     39 H7         29.3792   -2.4186    1.2982 H           1 KDA       0.0649
     40 H8         28.5849   -0.0774    0.7157 H           1 KDA       0.0642
     41 H9         27.1767    0.1012   -0.7015 H           1 KDA       0.2100
     42 H10        30.1122    0.0810   -1.4519 H           1 KDA       0.0570
     43 H11        30.5512   -1.5741   -1.1001 H           1 KDA       0.0570
     44 H12        27.9846   -2.4309    4.7511 H           1 KDA       0.0849
     45 H13        27.6446   -4.0363    6.3701 H           1 KDA       0.0331
     46 H14        27.5064   -6.3179    6.0368 H           1 KDA       0.0321
     47 H15        28.6232   -6.0853    4.6747 H           1 KDA       0.0321
     48 H16        26.8661   -5.9283    4.4291 H           1 KDA       0.0321
     49 H17        32.7881    0.8809    2.0639 H           1 KDA       0.0527
     50 H18        34.6659   -0.3524    2.5479 H           1 KDA       0.1535
     51 H19        33.6459   -2.6977    3.1205 H           1 KDA       0.0720
     52 H20        34.8859   -2.5868    1.8361 H           1 KDA       0.0720
     53 H21        33.1421   -2.3917    0.0905 H           1 KDA       0.0667
     54 H22        31.8432   -4.6275    1.6014 H           1 KDA       0.0646
     55 H23        33.7197   -4.9408    2.5624 H           1 KDA       0.2100
     56 H24        33.3197   -4.3290   -1.0793 H           1 KDA       0.0584
     57 H25        31.5678   -4.5966   -0.8196 H           1 KDA       0.0584
     58 H26        31.8877   -6.6206   -0.5745 H           1 KDA       0.2095
@<TRIPOS>BOND
     1     1     2  ar
     2     1     3  ar
     3     1     4   1
     4     4     5   1
     5     4    11   1
     6     4    16   1
     7     5     6   1
     8     6     7   1
     9     6     8   1
    10     8     9   1
    11     8    10   1
    12    10    11   1
    13    10    12   1
    14    12    13   1
    15    12    14   1
    16    14    15   1
    17    15    20   1
    18    16    17   1
    19    17    18   2
    20    18    19   1
    21    20    21   1
    22    20    24   1
    23    20    28   1
    24    21    22  ar
    25    21    23  ar
    26    24    25   2
    27    25    26   1
    28    26    27   1
    29    27    28   1
    30    27    29   1
    31    29    30   1
    32    29    31   1
    33    31    32   1
    34     5    33   1
    35     5    34   1
    36     6    35   1
    37     7    36   1
    38     8    37   1
    39     9    38   1
    40    10    39   1
    41    12    40   1
    42    13    41   1
    43    14    42   1
    44    14    43   1
    45    17    44   1
    46    18    45   1
    47    19    46   1
    48    19    47   1
    49    19    48   1
    50    24    49   1
    51    25    50   1
    52    26    51   1
    53    26    52   1
    54    27    53   1
    55    29    54   1
    56    30    55   1
    57    31    56   1
    58    31    57   1
    59    32    58   1
@<TRIPOS>SUBSTRUCTURE
     1  KDA      1

