@<TRIPOS>MOLECULE
3bpc_ligand_021
    58    59
SMALL
GAST_HUCK
****
This file was generated by PARSER (from files_GN.cpp)

@<TRIPOS>ATOM
      1 C1         27.7091   -2.2691    3.3325 C.2         1 KDA       0.1089
      2 O1A        27.9344   -0.9818    2.9641 O.co2       1 KDA      -0.5423
      3 O1B        27.9027   -2.5774    4.6336 O.co2       1 KDA      -0.5423
      4 C2         27.3347   -3.3340    2.3720 C.3         1 KDA       0.2378
      5 C3         27.3336   -2.8337    0.8867 C.3         1 KDA       0.0399
      6 C4         27.2445   -4.0133   -0.1136 C.3         1 KDA       0.0884
      7 O4         27.3635   -3.5075   -1.4471 O.3         1 KDA      -0.3891
      8 C5         28.3311   -5.0851    0.1727 C.3         1 KDA       0.1096
      9 O5         29.6158   -4.6070   -0.2370 O.3         1 KDA      -0.3866
     10 C6         28.3310   -5.4946    1.6808 C.3         1 KDA       0.1173
     11 O6         28.3940   -4.3071    2.5060 O.3         1 KDA      -0.3347
     12 C7         29.5369   -6.4004    2.0818 C.3         1 KDA       0.1055
     13 O7         29.4171   -7.7181    1.5401 O.3         1 KDA      -0.3869
     14 C8         29.7513   -6.5179    3.6217 C.3         1 KDA       0.0619
     15 O8         28.9817   -7.5945    4.2007 O.3         1 KDA      -0.4032
     16 O2         26.1144   -3.9488    2.8622 O.3         1 KDA      -0.3023
     17 C9         24.9207   -3.5092    2.4330 C.2         1 KDA       0.0369
     18 C10        24.2717   -2.4397    2.9233 C.2         1 KDA      -0.0824
     19 C11        24.8284   -1.5140    3.8869 C.3         1 KDA      -0.0537
     20 C2         29.6491   -8.7365    4.7952 C.3         1 KDA       0.1781
     21 C1         28.5892   -9.7530    5.0153 C.2         1 KDA       0.0464
     22 O1B        27.4171   -9.4049    5.6006 O.co2       1 KDA      -0.5651
     23 O1A        28.7674  -11.0658    4.7372 O.co2       1 KDA      -0.5651
     24 C3         30.2270   -8.4351    6.1072 C.2         1 KDA      -0.0254
     25 C4         31.4875   -8.7640    6.4275 C.2         1 KDA      -0.0084
     26 C5         32.3659   -9.4699    5.5103 C.3         1 KDA       0.0514
     27 C6         32.0092   -9.1473    4.0310 C.3         1 KDA       0.0994
     28 O6         30.5812   -9.3189    3.8419 O.3         1 KDA      -0.3957
     29 C7         32.7604  -10.0295    2.9915 C.3         1 KDA       0.1076
     30 O7         34.1490  -10.1285    3.3051 O.3         1 KDA      -0.3866
     31 C8         32.6484   -9.4785    1.5473 C.3         1 KDA       0.0729
     32 O8         31.3114   -9.1116    1.2192 O.3         1 KDA      -0.3924
     33 H1         28.2567   -2.2847    0.6790 H           1 KDA       0.0340
     34 H2         26.5032   -2.1485    0.7182 H           1 KDA       0.0340
     35 H3         26.2614   -4.4808   -0.0229 H           1 KDA       0.0621
     36 H4         27.0663   -4.2387   -2.0225 H           1 KDA       0.2099
     37 H5         28.1072   -5.9685   -0.4330 H           1 KDA       0.0646
     38 H6         29.8532   -3.8945    0.3896 H           1 KDA       0.2100
     39 H7         27.4105   -6.0450    1.8982 H           1 KDA       0.0649
     40 H8         30.4480   -5.9613    1.6593 H           1 KDA       0.0642
     41 H9         29.5080   -7.6212    0.5667 H           1 KDA       0.2100
     42 H10        29.4510   -5.5903    4.1204 H           1 KDA       0.0570
     43 H11        30.8164   -6.6235    3.8131 H           1 KDA       0.0570
     44 H12        24.4353   -4.0886    1.7862 H           1 KDA       0.0849
     45 H13        23.3464   -2.2635    2.5960 H           1 KDA       0.0331
     46 H14        24.0479   -0.8484    4.2649 H           1 KDA       0.0321
     47 H15        25.5944   -0.9005    3.4109 H           1 KDA       0.0321
     48 H16        25.2682   -2.0468    4.7337 H           1 KDA       0.0321
     49 H17        29.6624   -7.9711    6.7860 H           1 KDA       0.0527
     50 H18        31.8239   -8.5460    7.3381 H           1 KDA       0.1535
     51 H19        32.2626  -10.5447    5.6908 H           1 KDA       0.0720
     52 H20        33.3987   -9.1774    5.7151 H           1 KDA       0.0720
     53 H21        32.2929   -8.1128    3.8371 H           1 KDA       0.0667
     54 H22        32.3394  -11.0361    3.0167 H           1 KDA       0.0646
     55 H23        34.2165  -10.7548    4.0570 H           1 KDA       0.2100
     56 H24        32.9728  -10.2449    0.8389 H           1 KDA       0.0584
     57 H25        33.2920   -8.5979    1.4279 H           1 KDA       0.0584
     58 H26        31.3873   -8.6196    0.3756 H           1 KDA       0.2095
@<TRIPOS>BOND
     1     1     2  ar
     2     1     3  ar
     3     1     4   1
     4     4     5   1
     5     4    11   1
     6     4    16   1
     7     5     6   1
     8     6     7   1
     9     6     8   1
    10     8     9   1
    11     8    10   1
    12    10    11   1
    13    10    12   1
    14    12    13   1
    15    12    14   1
    16    14    15   1
    17    15    20   1
    18    16    17   1
    19    17    18   2
    20    18    19   1
    21    20    21   1
    22    20    24   1
    23    20    28   1
    24    21    22  ar
    25    21    23  ar
    26    24    25   2
    27    25    26   1
    28    26    27   1
    29    27    28   1
    30    27    29   1
    31    29    30   1
    32    29    31   1
    33    31    32   1
    34     5    33   1
    35     5    34   1
    36     6    35   1
    37     7    36   1
    38     8    37   1
    39     9    38   1
    40    10    39   1
    41    12    40   1
    42    13    41   1
    43    14    42   1
    44    14    43   1
    45    17    44   1
    46    18    45   1
    47    19    46   1
    48    19    47   1
    49    19    48   1
    50    24    49   1
    51    25    50   1
    52    26    51   1
    53    26    52   1
    54    27    53   1
    55    29    54   1
    56    30    55   1
    57    31    56   1
    58    31    57   1
    59    32    58   1
@<TRIPOS>SUBSTRUCTURE
     1  KDA      1

