@<TRIPOS>MOLECULE
3bpc_ligand_025
    58    59
SMALL
GAST_HUCK
****
This file was generated by PARSER (from files_GN.cpp)

@<TRIPOS>ATOM
      1 C1         29.7086   -0.4502   -0.5538 C.2         1 KDA       0.1089
      2 O1A        29.0581   -0.4972   -1.7380 O.co2       1 KDA      -0.5423
      3 O1B        30.7877    0.3599   -0.4745 O.co2       1 KDA      -0.5423
      4 C2         29.3088   -1.3423    0.5637 C.3         1 KDA       0.2378
      5 C3         27.7493   -1.3547    0.6946 C.3         1 KDA       0.0399
      6 C4         27.2881   -2.4697    1.6643 C.3         1 KDA       0.0884
      7 O4         25.8633   -2.4982    1.7488 O.3         1 KDA      -0.3891
      8 C5         27.8476   -3.8464    1.2187 C.3         1 KDA       0.1096
      9 O5         27.2220   -4.2579    0.0017 O.3         1 KDA      -0.3866
     10 C6         29.4011   -3.7756    1.0511 C.3         1 KDA       0.1173
     11 O6         29.7535   -2.6696    0.1809 O.3         1 KDA      -0.3347
     12 C7         30.0388   -5.0938    0.5013 C.3         1 KDA       0.1055
     13 O7         29.3566   -6.2248    1.0552 O.3         1 KDA      -0.3869
     14 C8         31.5649   -5.2588    0.7851 C.3         1 KDA       0.0619
     15 O8         32.4129   -4.9937   -0.3520 O.3         1 KDA      -0.4032
     16 O2         30.0128   -1.0256    1.7980 O.3         1 KDA      -0.3023
     17 C9         29.7675    0.1212    2.4577 C.2         1 KDA       0.0369
     18 C10        30.7571    0.8753    2.9560 C.2         1 KDA      -0.0824
     19 C11        32.1601    0.5559    2.8124 C.3         1 KDA      -0.0537
     20 C2         33.2664   -3.8265   -0.4326 C.3         1 KDA       0.1781
     21 C1         32.4917   -2.7170   -1.0428 C.2         1 KDA       0.0464
     22 O1B        32.4843   -1.4716   -0.5130 O.co2       1 KDA      -0.5651
     23 O1A        31.8710   -2.8863   -2.2324 O.co2       1 KDA      -0.5651
     24 C3         34.3582   -4.1768   -1.3487 C.2         1 KDA      -0.0254
     25 C4         35.6357   -4.2839   -0.9498 C.2         1 KDA      -0.0084
     26 C5         36.0597   -4.0695    0.4217 C.3         1 KDA       0.0514
     27 C6         34.8625   -4.1210    1.4150 C.3         1 KDA       0.0994
     28 O6         33.7623   -3.3711    0.8567 O.3         1 KDA      -0.3957
     29 C7         35.1636   -3.5970    2.8498 C.3         1 KDA       0.1076
     30 O7         33.9850   -3.7844    3.6374 O.3         1 KDA      -0.3866
     31 C8         35.6081   -2.1124    2.9592 C.3         1 KDA       0.0729
     32 O8         34.8706   -1.2548    2.0919 O.3         1 KDA      -0.3924
     33 H1         27.2898   -1.5408   -0.2806 H           1 KDA       0.0340
     34 H2         27.3811   -0.3886    1.0408 H           1 KDA       0.0340
     35 H3         27.6573   -2.2433    2.6689 H           1 KDA       0.0621
     36 H4         25.5492   -2.7222    0.8477 H           1 KDA       0.2099
     37 H5         27.5942   -4.5772    1.9899 H           1 KDA       0.0646
     38 H6         27.1406   -5.2340    0.0603 H           1 KDA       0.2100
     39 H7         29.8255   -3.5942    2.0425 H           1 KDA       0.0649
     40 H8         29.8734   -5.1375   -0.5767 H           1 KDA       0.0642
     41 H9         29.6579   -6.2840    1.9861 H           1 KDA       0.2100
     42 H10        31.7594   -6.3043    1.0191 H           1 KDA       0.0570
     43 H11        31.8423   -4.6955    1.6759 H           1 KDA       0.0570
     44 H12        28.8321    0.4041    2.6339 H           1 KDA       0.0849
     45 H13        30.5156    1.7064    3.4484 H           1 KDA       0.0331
     46 H14        32.7782    1.3189    3.2927 H           1 KDA       0.0321
     47 H15        32.4287    0.5117    1.7553 H           1 KDA       0.0321
     48 H16        32.3746   -0.4068    3.2805 H           1 KDA       0.0321
     49 H17        34.1452   -4.3827   -2.2990 H           1 KDA       0.0527
     50 H18        36.3314   -4.4785   -1.6284 H           1 KDA       0.1535
     51 H19        36.5563   -3.1004    0.4613 H           1 KDA       0.0720
     52 H20        36.7936   -4.8295    0.7022 H           1 KDA       0.0720
     53 H21        34.5626   -5.1695    1.5194 H           1 KDA       0.0667
     54 H22        35.9467   -4.2171    3.2936 H           1 KDA       0.0646
     55 H23        34.2735   -3.7003    4.5710 H           1 KDA       0.2100
     56 H24        36.6689   -2.0206    2.7191 H           1 KDA       0.0584
     57 H25        35.4668   -1.7619    3.9834 H           1 KDA       0.0584
     58 H26        35.2610   -0.3647    2.2180 H           1 KDA       0.2095
@<TRIPOS>BOND
     1     1     2  ar
     2     1     3  ar
     3     1     4   1
     4     4     5   1
     5     4    11   1
     6     4    16   1
     7     5     6   1
     8     6     7   1
     9     6     8   1
    10     8     9   1
    11     8    10   1
    12    10    11   1
    13    10    12   1
    14    12    13   1
    15    12    14   1
    16    14    15   1
    17    15    20   1
    18    16    17   1
    19    17    18   2
    20    18    19   1
    21    20    21   1
    22    20    24   1
    23    20    28   1
    24    21    22  ar
    25    21    23  ar
    26    24    25   2
    27    25    26   1
    28    26    27   1
    29    27    28   1
    30    27    29   1
    31    29    30   1
    32    29    31   1
    33    31    32   1
    34     5    33   1
    35     5    34   1
    36     6    35   1
    37     7    36   1
    38     8    37   1
    39     9    38   1
    40    10    39   1
    41    12    40   1
    42    13    41   1
    43    14    42   1
    44    14    43   1
    45    17    44   1
    46    18    45   1
    47    19    46   1
    48    19    47   1
    49    19    48   1
    50    24    49   1
    51    25    50   1
    52    26    51   1
    53    26    52   1
    54    27    53   1
    55    29    54   1
    56    30    55   1
    57    31    56   1
    58    31    57   1
    59    32    58   1
@<TRIPOS>SUBSTRUCTURE
     1  KDA      1

