@<TRIPOS>MOLECULE
3bpc_ligand_022
    58    59
SMALL
GAST_HUCK
****
This file was generated by PARSER (from files_GN.cpp)

@<TRIPOS>ATOM
      1 C1         26.7391   -4.4693    4.1887 C.2         1 KDA       0.1089
      2 O1A        25.5749   -5.1571    4.2250 O.co2       1 KDA      -0.5423
      3 O1B        27.1403   -3.8777    5.3398 O.co2       1 KDA      -0.5423
      4 C2         27.6592   -4.5320    3.0155 C.3         1 KDA       0.2378
      5 C3         26.8547   -4.9643    1.7449 C.3         1 KDA       0.0399
      6 C4         27.6082   -4.6734    0.4238 C.3         1 KDA       0.0884
      7 O4         26.7349   -4.9283   -0.6756 O.3         1 KDA      -0.3891
      8 C5         28.1236   -3.2071    0.3949 C.3         1 KDA       0.1096
      9 O5         27.0383   -2.2754    0.4081 O.3         1 KDA      -0.3866
     10 C6         29.0231   -2.9715    1.6429 C.3         1 KDA       0.1173
     11 O6         28.2060   -3.1965    2.8231 O.3         1 KDA      -0.3347
     12 C7         29.7168   -1.5650    1.7550 C.3         1 KDA       0.1055
     13 O7         29.4601   -0.7207    0.6285 O.3         1 KDA      -0.3869
     14 C8         31.2559   -1.6362    1.9917 C.3         1 KDA       0.0619
     15 O8         31.9409   -1.9282    0.7505 O.3         1 KDA      -0.4032
     16 O2         28.6894   -5.5272    3.2616 O.3         1 KDA      -0.3023
     17 C9         29.6472   -5.1997    4.1451 C.2         1 KDA       0.0369
     18 C10        29.7248   -5.7386    5.3677 C.2         1 KDA      -0.0824
     19 C11        28.7617   -6.6804    5.8976 C.3         1 KDA      -0.0537
     20 C2         33.2904   -2.4653    0.7506 C.3         1 KDA       0.1781
     21 C1         34.2862   -1.6270    1.4675 C.2         1 KDA       0.0464
     22 O1B        33.9624   -0.4250    1.9930 O.co2       1 KDA      -0.5651
     23 O1A        35.6008   -1.9531    1.4216 O.co2       1 KDA      -0.5651
     24 C3         33.6806   -2.5111   -0.6618 C.2         1 KDA      -0.0254
     25 C4         33.7848   -3.6672   -1.3389 C.2         1 KDA      -0.0084
     26 C5         33.5097   -4.9656   -0.7374 C.3         1 KDA       0.0514
     27 C6         32.7161   -4.8506    0.5997 C.3         1 KDA       0.0994
     28 O6         33.3209   -3.7827    1.3751 O.3         1 KDA      -0.3957
     29 C7         32.5150   -6.1633    1.4415 C.3         1 KDA       0.1076
     30 O7         32.8521   -5.9155    2.8068 O.3         1 KDA      -0.3866
     31 C8         33.2561   -7.4594    1.0115 C.3         1 KDA       0.0729
     32 O8         33.0415   -7.7704   -0.3631 O.3         1 KDA      -0.3924
     33 H1         25.9072   -4.4212    1.7108 H           1 KDA       0.0340
     34 H2         26.6232   -6.0313    1.8076 H           1 KDA       0.0340
     35 H3         28.4562   -5.3626    0.3414 H           1 KDA       0.0621
     36 H4         27.3151   -5.0748   -1.4496 H           1 KDA       0.2099
     37 H5         28.6967   -3.0525   -0.5214 H           1 KDA       0.0646
     38 H6         26.3276   -2.6669   -0.1452 H           1 KDA       0.2100
     39 H7         29.8093   -3.7293    1.6158 H           1 KDA       0.0649
     40 H8         29.2787   -1.0397    2.6087 H           1 KDA       0.0642
     41 H9         29.9138   -1.1484   -0.1269 H           1 KDA       0.2100
     42 H10        31.4771   -2.3717    2.7706 H           1 KDA       0.0570
     43 H11        31.5996   -0.6648    2.3508 H           1 KDA       0.0570
     44 H12        30.3537   -4.5624    3.8642 H           1 KDA       0.0849
     45 H13        30.4832   -5.4611    5.9545 H           1 KDA       0.0331
     46 H14        29.0503   -6.9835    6.9067 H           1 KDA       0.0321
     47 H15        28.7177   -7.5697    5.2658 H           1 KDA       0.0321
     48 H16        27.7720   -6.2219    5.9467 H           1 KDA       0.0321
     49 H17        33.8287   -1.6571   -1.1550 H           1 KDA       0.0527
     50 H18        34.0867   -3.6362   -2.2894 H           1 KDA       0.1535
     51 H19        34.4695   -5.4590   -0.5769 H           1 KDA       0.0720
     52 H20        32.9299   -5.5703   -1.4378 H           1 KDA       0.0720
     53 H21        31.7075   -4.5180    0.3269 H           1 KDA       0.0667
     54 H22        31.4484   -6.4082    1.4280 H           1 KDA       0.0646
     55 H23        32.3879   -6.6156    3.3168 H           1 KDA       0.2100
     56 H24        32.8829   -8.2997    1.6027 H           1 KDA       0.0584
     57 H25        34.3274   -7.3721    1.1932 H           1 KDA       0.0584
     58 H26        32.0812   -7.6301   -0.5253 H           1 KDA       0.2095
@<TRIPOS>BOND
     1     1     2  ar
     2     1     3  ar
     3     1     4   1
     4     4     5   1
     5     4    11   1
     6     4    16   1
     7     5     6   1
     8     6     7   1
     9     6     8   1
    10     8     9   1
    11     8    10   1
    12    10    11   1
    13    10    12   1
    14    12    13   1
    15    12    14   1
    16    14    15   1
    17    15    20   1
    18    16    17   1
    19    17    18   2
    20    18    19   1
    21    20    21   1
    22    20    24   1
    23    20    28   1
    24    21    22  ar
    25    21    23  ar
    26    24    25   2
    27    25    26   1
    28    26    27   1
    29    27    28   1
    30    27    29   1
    31    29    30   1
    32    29    31   1
    33    31    32   1
    34     5    33   1
    35     5    34   1
    36     6    35   1
    37     7    36   1
    38     8    37   1
    39     9    38   1
    40    10    39   1
    41    12    40   1
    42    13    41   1
    43    14    42   1
    44    14    43   1
    45    17    44   1
    46    18    45   1
    47    19    46   1
    48    19    47   1
    49    19    48   1
    50    24    49   1
    51    25    50   1
    52    26    51   1
    53    26    52   1
    54    27    53   1
    55    29    54   1
    56    30    55   1
    57    31    56   1
    58    31    57   1
    59    32    58   1
@<TRIPOS>SUBSTRUCTURE
     1  KDA      1

