@<TRIPOS>MOLECULE
3bpc_ligand_004
    58    59
SMALL
GAST_HUCK
****
This file was generated by PARSER (from files_GN.cpp)

@<TRIPOS>ATOM
      1 C1         32.0620   -3.5838   -0.1688 C.2         1 KDA       0.1089
      2 O1A        32.3681   -4.3745    0.8845 O.co2       1 KDA      -0.5423
      3 O1B        32.5460   -3.9657   -1.3745 O.co2       1 KDA      -0.5423
      4 C2         31.1332   -2.4281   -0.0012 C.3         1 KDA       0.2378
      5 C3         30.7732   -1.7866   -1.3831 C.3         1 KDA       0.0399
      6 C4         29.5827   -0.7977   -1.2802 C.3         1 KDA       0.0884
      7 O4         29.2311   -0.3308   -2.5817 O.3         1 KDA      -0.3891
      8 C5         28.3641   -1.4757   -0.5967 C.3         1 KDA       0.1096
      9 O5         27.8392   -2.5106   -1.4357 O.3         1 KDA      -0.3866
     10 C6         28.8105   -2.0268    0.7918 C.3         1 KDA       0.1173
     11 O6         29.9218   -2.9439    0.6173 O.3         1 KDA      -0.3347
     12 C7         27.6858   -2.7450    1.5990 C.3         1 KDA       0.1055
     13 O7         26.4716   -1.9870    1.5649 O.3         1 KDA      -0.3869
     14 C8         28.0755   -3.0115    3.0863 C.3         1 KDA       0.0619
     15 O8         28.5753   -4.3598    3.2476 O.3         1 KDA      -0.4032
     16 O2         31.7759   -1.3927    0.7925 O.3         1 KDA      -0.3023
     17 C9         31.8951   -1.5643    2.1266 C.2         1 KDA       0.0369
     18 C10        31.9957   -0.5250    2.9671 C.2         1 KDA      -0.0824
     19 C11        31.9892    0.8544    2.5413 C.3         1 KDA      -0.0537
     20 C2         27.8623   -5.3095    4.0822 C.3         1 KDA       0.1781
     21 C1         26.4755   -5.5038    3.6027 C.2         1 KDA       0.0464
     22 O1B        26.2601   -5.8142    2.3094 O.co2       1 KDA      -0.5651
     23 O1A        25.3842   -5.2496    4.3530 O.co2       1 KDA      -0.5651
     24 C3         27.9572   -4.9292    5.4987 C.2         1 KDA      -0.0254
     25 C4         28.7623   -5.5656    6.3615 C.2         1 KDA      -0.0084
     26 C5         29.6206   -6.6794    5.9802 C.3         1 KDA       0.0514
     27 C6         29.7368   -6.8511    4.4330 C.3         1 KDA       0.0994
     28 O6         28.4369   -6.6172    3.8587 O.3         1 KDA      -0.3957
     29 C7         30.2355   -8.2631    4.0080 C.3         1 KDA       0.1076
     30 O7         31.5375   -8.5057    4.5424 O.3         1 KDA      -0.3866
     31 C8         30.2577   -8.4775    2.4700 C.3         1 KDA       0.0729
     32 O8         31.0056   -7.4689    1.7936 O.3         1 KDA      -0.3924
     33 H1         30.4950   -2.5701   -2.0957 H           1 KDA       0.0340
     34 H2         31.6453   -1.2616   -1.7851 H           1 KDA       0.0340
     35 H3         29.8935    0.0733   -0.6902 H           1 KDA       0.0621
     36 H4         28.5152    0.3214   -2.4324 H           1 KDA       0.2099
     37 H5         27.5874   -0.7177   -0.4644 H           1 KDA       0.0646
     38 H6         27.0096   -2.8149   -1.0054 H           1 KDA       0.2100
     39 H7         29.1347   -1.1682    1.3897 H           1 KDA       0.0649
     40 H8         27.4700   -3.6994    1.1113 H           1 KDA       0.0642
     41 H9         26.0894   -2.1330    0.6691 H           1 KDA       0.2100
     42 H10        27.2115   -2.8245    3.7272 H           1 KDA       0.0570
     43 H11        28.8573   -2.3238    3.4170 H           1 KDA       0.0570
     44 H12        31.8968   -2.4783    2.5200 H           1 KDA       0.0849
     45 H13        32.0695   -0.7106    3.9425 H           1 KDA       0.0331
     46 H14        32.0467    1.5217    3.4024 H           1 KDA       0.0321
     47 H15        31.0709    1.0732    1.9975 H           1 KDA       0.0321
     48 H16        32.8465    1.0469    1.8981 H           1 KDA       0.0321
     49 H17        27.4252   -4.1516    5.8258 H           1 KDA       0.0527
     50 H18        28.7620   -5.2789    7.3161 H           1 KDA       0.1535
     51 H19        29.2000   -7.5828    6.4322 H           1 KDA       0.0720
     52 H20        30.6180   -6.5202    6.4037 H           1 KDA       0.0720
     53 H21        30.4419   -6.1077    4.0466 H           1 KDA       0.0667
     54 H22        29.5658   -9.0172    4.4323 H           1 KDA       0.0646
     55 H23        32.1139   -7.8187    4.1471 H           1 KDA       0.2100
     56 H24        29.2365   -8.4751    2.0793 H           1 KDA       0.0584
     57 H25        30.7042   -9.4490    2.2408 H           1 KDA       0.0584
     58 H26        30.9127   -7.6729    0.8380 H           1 KDA       0.2095
@<TRIPOS>BOND
     1     1     2  ar
     2     1     3  ar
     3     1     4   1
     4     4     5   1
     5     4    11   1
     6     4    16   1
     7     5     6   1
     8     6     7   1
     9     6     8   1
    10     8     9   1
    11     8    10   1
    12    10    11   1
    13    10    12   1
    14    12    13   1
    15    12    14   1
    16    14    15   1
    17    15    20   1
    18    16    17   1
    19    17    18   2
    20    18    19   1
    21    20    21   1
    22    20    24   1
    23    20    28   1
    24    21    22  ar
    25    21    23  ar
    26    24    25   2
    27    25    26   1
    28    26    27   1
    29    27    28   1
    30    27    29   1
    31    29    30   1
    32    29    31   1
    33    31    32   1
    34     5    33   1
    35     5    34   1
    36     6    35   1
    37     7    36   1
    38     8    37   1
    39     9    38   1
    40    10    39   1
    41    12    40   1
    42    13    41   1
    43    14    42   1
    44    14    43   1
    45    17    44   1
    46    18    45   1
    47    19    46   1
    48    19    47   1
    49    19    48   1
    50    24    49   1
    51    25    50   1
    52    26    51   1
    53    26    52   1
    54    27    53   1
    55    29    54   1
    56    30    55   1
    57    31    56   1
    58    31    57   1
    59    32    58   1
@<TRIPOS>SUBSTRUCTURE
     1  KDA      1

