@<TRIPOS>MOLECULE
3cft_ligand_027
    23    24
SMALL
GAST_HUCK
****
This file was generated by PARSER (from files_GN.cpp)

@<TRIPOS>ATOM
      1 C1        -23.6474   -2.1823  -28.9971 C.ar        1 MOL      -0.0429
      2 C2        -24.8492   -2.8569  -28.7509 C.ar        1 MOL      -0.0622
      3 C3        -25.7173   -3.1504  -29.8108 C.ar        1 MOL      -0.0544
      4 C4        -25.3981   -2.7790  -31.1389 C.ar        1 MOL       0.0090
      5 C5        -24.1675   -2.0860  -31.3911 C.ar        1 MOL      -0.0074
      6 C6        -23.2827   -1.7978  -30.3063 C.ar        1 MOL       0.0533
      7 C9        -24.7631   -2.0026  -33.7804 C.ar        1 MOL      -0.0784
      8 C10       -23.8835   -1.7028  -32.7287 C.ar        1 MOL      -0.0698
      9 O14       -20.6577   -1.3483  -29.2699 O.co2       1 MOL      -0.4801
     10 S11       -21.7565   -0.9559  -30.4947 S.o2        1 MOL      -0.1641
     11 O12       -22.0447    0.7105  -30.4590 O.co2       1 MOL      -0.4801
     12 O13       -21.0652   -1.3499  -31.9859 O.co2       1 MOL      -0.4801
     13 C8        -25.9528   -2.6957  -33.5243 C.ar        1 MOL      -0.0461
     14 C7        -26.2813   -3.0847  -32.2118 C.ar        1 MOL       0.0492
     15 N15       -27.4463   -3.7445  -32.0456 N.pl3       1 MOL      -0.3324
     16 H1        -23.0420   -1.9795  -28.1993 H           1 MOL       0.0631
     17 H2        -25.0964   -3.1321  -27.7967 H           1 MOL       0.0585
     18 H3        -26.5824   -3.6504  -29.5911 H           1 MOL       0.0631
     19 H4        -24.5357   -1.7170  -34.7348 H           1 MOL       0.0573
     20 H5        -23.0343   -1.1909  -32.9676 H           1 MOL       0.0468
     21 H6        -26.5827   -2.9060  -34.3042 H           1 MOL       0.0463
     22 H7        -27.7259   -4.0415  -31.1670 H           1 MOL       0.1757
     23 H8        -28.0166   -3.9251  -32.8115 H           1 MOL       0.1757
@<TRIPOS>BOND
     1     1     2  ar
     2     1     6  ar
     3     2     3  ar
     4     3     4  ar
     5     4     5  ar
     6     4    14  ar
     7     5     6  ar
     8     5     8  ar
     9     6    10   1
    10     8     7  ar
    11     7    13  ar
    12    10     9  ar
    13    10    11  ar
    14    10    12  ar
    15    13    14  ar
    16    14    15   1
    17     1    16   1
    18     2    17   1
    19     3    18   1
    20     7    19   1
    21     8    20   1
    22    13    21   1
    23    15    22   1
    24    15    23   1
@<TRIPOS>SUBSTRUCTURE
     1  MOL      1

