@<TRIPOS>MOLECULE
3cft_ligand_009
    23    24
SMALL
GAST_HUCK
****
This file was generated by PARSER (from files_GN.cpp)

@<TRIPOS>ATOM
      1 C1        -22.8377   -1.2117  -23.0824 C.ar        1 MOL      -0.0429
      2 C2        -23.9026   -0.3081  -23.0022 C.ar        1 MOL      -0.0622
      3 C3        -23.9871    0.7577  -23.9065 C.ar        1 MOL      -0.0544
      4 C4        -23.0034    0.9400  -24.9066 C.ar        1 MOL       0.0090
      5 C5        -21.9050    0.0180  -24.9838 C.ar        1 MOL      -0.0074
      6 C6        -21.8363   -1.0766  -24.0671 C.ar        1 MOL       0.0533
      7 C9        -21.0111    1.3070  -26.8801 C.ar        1 MOL      -0.0784
      8 C10       -20.9183    0.2351  -25.9775 C.ar        1 MOL      -0.0698
      9 O14       -19.1204   -1.5481  -23.5658 O.co2       1 MOL      -0.4801
     10 S11       -20.5637   -2.2830  -24.0513 S.o2        1 MOL      -0.1641
     11 O12       -20.3378   -2.9202  -25.6032 O.co2       1 MOL      -0.4801
     12 O13       -20.9339   -3.5496  -22.9970 O.co2       1 MOL      -0.4801
     13 C8        -22.0914    2.1942  -26.8052 C.ar        1 MOL      -0.0461
     14 C7        -23.0884    2.0214  -25.8306 C.ar        1 MOL       0.0492
     15 N15       -24.1011    2.9120  -25.8257 N.pl3       1 MOL      -0.3324
     16 H1        -22.8141   -1.9689  -22.4001 H           1 MOL       0.0631
     17 H2        -24.6169   -0.4328  -22.2823 H           1 MOL       0.0585
     18 H3        -24.7846    1.3917  -23.8161 H           1 MOL       0.0631
     19 H4        -20.2904    1.4356  -27.5925 H           1 MOL       0.0573
     20 H5        -20.1076   -0.3752  -26.0664 H           1 MOL       0.0468
     21 H6        -22.1416    2.9737  -27.4696 H           1 MOL       0.0463
     22 H7        -24.8157    2.8360  -25.1772 H           1 MOL       0.1757
     23 H8        -24.1169    3.6372  -26.4722 H           1 MOL       0.1757
@<TRIPOS>BOND
     1     1     2  ar
     2     1     6  ar
     3     2     3  ar
     4     3     4  ar
     5     4     5  ar
     6     4    14  ar
     7     5     6  ar
     8     5     8  ar
     9     6    10   1
    10     8     7  ar
    11     7    13  ar
    12    10     9  ar
    13    10    11  ar
    14    10    12  ar
    15    13    14  ar
    16    14    15   1
    17     1    16   1
    18     2    17   1
    19     3    18   1
    20     7    19   1
    21     8    20   1
    22    13    21   1
    23    15    22   1
    24    15    23   1
@<TRIPOS>SUBSTRUCTURE
     1  MOL      1

