@<TRIPOS>MOLECULE
3cft_ligand_032
    23    24
SMALL
GAST_HUCK
****
This file was generated by PARSER (from files_GN.cpp)

@<TRIPOS>ATOM
      1 C1        -24.2665    0.4265  -23.9003 C.ar        1 MOL      -0.0429
      2 C2        -24.0367    1.7195  -23.4216 C.ar        1 MOL      -0.0622
      3 C3        -22.7691    2.0763  -22.9426 C.ar        1 MOL      -0.0544
      4 C4        -21.7018    1.1474  -22.9529 C.ar        1 MOL       0.0090
      5 C5        -21.9197   -0.1555  -23.5075 C.ar        1 MOL      -0.0074
      6 C6        -23.2210   -0.5164  -23.9700 C.ar        1 MOL       0.0533
      7 C9        -19.5520   -0.6820  -23.0871 C.ar        1 MOL      -0.0784
      8 C10       -20.8156   -1.0459  -23.5727 C.ar        1 MOL      -0.0698
      9 O14       -22.7621   -2.1987  -26.1324 O.co2       1 MOL      -0.4801
     10 S11       -23.5994   -2.0745  -24.6700 S.o2        1 MOL      -0.1641
     11 O12       -25.2518   -2.2693  -24.9695 O.co2       1 MOL      -0.4801
     12 O13       -23.0984   -3.3051  -23.6237 O.co2       1 MOL      -0.4801
     13 C8        -19.3631    0.5763  -22.5051 C.ar        1 MOL      -0.0461
     14 C7        -20.4252    1.4973  -22.4363 C.ar        1 MOL       0.0492
     15 N15       -20.1633    2.6898  -21.8653 N.pl3       1 MOL      -0.3324
     16 H1        -25.2103    0.1895  -24.2044 H           1 MOL       0.0631
     17 H2        -24.8038    2.3954  -23.4100 H           1 MOL       0.0585
     18 H3        -22.6446    3.0221  -22.5827 H           1 MOL       0.0631
     19 H4        -18.7689   -1.3384  -23.1575 H           1 MOL       0.0573
     20 H5        -20.9025   -1.9754  -23.9857 H           1 MOL       0.0468
     21 H6        -18.4375    0.8163  -22.1489 H           1 MOL       0.0463
     22 H7        -20.8464    3.3757  -21.7959 H           1 MOL       0.1757
     23 H8        -19.2772    2.8647  -21.5144 H           1 MOL       0.1757
@<TRIPOS>BOND
     1     1     2  ar
     2     1     6  ar
     3     2     3  ar
     4     3     4  ar
     5     4     5  ar
     6     4    14  ar
     7     5     6  ar
     8     5     8  ar
     9     6    10   1
    10     8     7  ar
    11     7    13  ar
    12    10     9  ar
    13    10    11  ar
    14    10    12  ar
    15    13    14  ar
    16    14    15   1
    17     1    16   1
    18     2    17   1
    19     3    18   1
    20     7    19   1
    21     8    20   1
    22    13    21   1
    23    15    22   1
    24    15    23   1
@<TRIPOS>SUBSTRUCTURE
     1  MOL      1

