@<TRIPOS>MOLECULE
3cft_ligand_023
    23    24
SMALL
GAST_HUCK
****
This file was generated by PARSER (from files_GN.cpp)

@<TRIPOS>ATOM
      1 C1        -23.3485   -0.9834  -24.3528 C.ar        1 MOL      -0.0429
      2 C2        -23.6777   -0.4606  -23.0996 C.ar        1 MOL      -0.0622
      3 C3        -22.9116    0.5731  -22.5400 C.ar        1 MOL      -0.0544
      4 C4        -21.7813    1.0918  -23.2195 C.ar        1 MOL       0.0090
      5 C5        -21.4130    0.5255  -24.4841 C.ar        1 MOL      -0.0074
      6 C6        -22.2324   -0.4944  -25.0656 C.ar        1 MOL       0.0533
      7 C9        -19.4747    2.0334  -24.5382 C.ar        1 MOL      -0.0784
      8 C10       -20.2313    1.0009  -25.1136 C.ar        1 MOL      -0.0698
      9 O14       -23.3970   -1.8325  -27.3069 O.co2       1 MOL      -0.4801
     10 S11       -21.9672   -1.1904  -26.6565 S.o2        1 MOL      -0.1641
     11 O12       -20.8236   -2.4323  -26.5250 O.co2       1 MOL      -0.4801
     12 O13       -21.3890   -0.0023  -27.7133 O.co2       1 MOL      -0.4801
     13 C8        -19.8805    2.6281  -23.3316 C.ar        1 MOL      -0.0461
     14 C7        -21.0231    2.1602  -22.6628 C.ar        1 MOL       0.0492
     15 N15       -21.3360    2.7899  -21.5136 N.pl3       1 MOL      -0.3324
     16 H1        -23.9318   -1.7269  -24.7363 H           1 MOL       0.0631
     17 H2        -24.4805   -0.8355  -22.5931 H           1 MOL       0.0585
     18 H3        -23.1822    0.9266  -21.6219 H           1 MOL       0.0631
     19 H4        -18.6279    2.3697  -25.0145 H           1 MOL       0.0573
     20 H5        -19.8965    0.5994  -25.9943 H           1 MOL       0.0468
     21 H6        -19.3307    3.4149  -22.9585 H           1 MOL       0.0463
     22 H7        -22.1143    2.5326  -21.0040 H           1 MOL       0.1757
     23 H8        -20.7850    3.5200  -21.2025 H           1 MOL       0.1757
@<TRIPOS>BOND
     1     1     2  ar
     2     1     6  ar
     3     2     3  ar
     4     3     4  ar
     5     4     5  ar
     6     4    14  ar
     7     5     6  ar
     8     5     8  ar
     9     6    10   1
    10     8     7  ar
    11     7    13  ar
    12    10     9  ar
    13    10    11  ar
    14    10    12  ar
    15    13    14  ar
    16    14    15   1
    17     1    16   1
    18     2    17   1
    19     3    18   1
    20     7    19   1
    21     8    20   1
    22    13    21   1
    23    15    22   1
    24    15    23   1
@<TRIPOS>SUBSTRUCTURE
     1  MOL      1

