@<TRIPOS>MOLECULE
3cft_ligand_017
    23    24
SMALL
GAST_HUCK
****
This file was generated by PARSER (from files_GN.cpp)

@<TRIPOS>ATOM
      1 C1        -21.5248   -1.5399  -28.5204 C.ar        1 MOL      -0.0429
      2 C2        -21.1179   -2.6904  -27.8327 C.ar        1 MOL      -0.0622
      3 C3        -20.4786   -2.5772  -26.5925 C.ar        1 MOL      -0.0544
      4 C4        -20.2454   -1.3099  -26.0075 C.ar        1 MOL       0.0090
      5 C5        -20.6708   -0.1303  -26.7054 C.ar        1 MOL      -0.0074
      6 C6        -21.2996   -0.2530  -27.9834 C.ar        1 MOL       0.0533
      7 C9        -19.8042    1.2257  -24.8381 C.ar        1 MOL      -0.0784
      8 C10       -20.4496    1.1242  -26.0815 C.ar        1 MOL      -0.0698
      9 O14       -20.7478    2.3600  -28.9759 O.co2       1 MOL      -0.4801
     10 S11       -21.8754    1.0998  -28.9418 S.o2        1 MOL      -0.1641
     11 O12       -23.3100    1.6601  -28.2461 O.co2       1 MOL      -0.4801
     12 O13       -22.1926    0.6406  -30.5379 O.co2       1 MOL      -0.4801
     13 C8        -19.3849    0.0696  -24.1706 C.ar        1 MOL      -0.0461
     14 C7        -19.6052   -1.1964  -24.7424 C.ar        1 MOL       0.0492
     15 N15       -19.1796   -2.2619  -24.0376 N.pl3       1 MOL      -0.3324
     16 H1        -21.9964   -1.6637  -29.4188 H           1 MOL       0.0631
     17 H2        -21.2908   -3.6160  -28.2348 H           1 MOL       0.0585
     18 H3        -20.1966   -3.4413  -26.1236 H           1 MOL       0.0631
     19 H4        -19.6403    2.1424  -24.4171 H           1 MOL       0.0573
     20 H5        -20.7601    1.9919  -26.5130 H           1 MOL       0.0468
     21 H6        -18.9182    0.1582  -23.2621 H           1 MOL       0.0463
     22 H7        -19.3040   -3.1593  -24.3773 H           1 MOL       0.1757
     23 H8        -18.7411   -2.1314  -23.1839 H           1 MOL       0.1757
@<TRIPOS>BOND
     1     1     2  ar
     2     1     6  ar
     3     2     3  ar
     4     3     4  ar
     5     4     5  ar
     6     4    14  ar
     7     5     6  ar
     8     5     8  ar
     9     6    10   1
    10     8     7  ar
    11     7    13  ar
    12    10     9  ar
    13    10    11  ar
    14    10    12  ar
    15    13    14  ar
    16    14    15   1
    17     1    16   1
    18     2    17   1
    19     3    18   1
    20     7    19   1
    21     8    20   1
    22    13    21   1
    23    15    22   1
    24    15    23   1
@<TRIPOS>SUBSTRUCTURE
     1  MOL      1

