@<TRIPOS>MOLECULE
3cft_ligand_022
    23    24
SMALL
GAST_HUCK
****
This file was generated by PARSER (from files_GN.cpp)

@<TRIPOS>ATOM
      1 C1        -21.0599    1.5242  -22.6947 C.ar        1 MOL      -0.0429
      2 C2        -22.1463    2.4082  -22.7439 C.ar        1 MOL      -0.0622
      3 C3        -22.7998    2.6423  -23.9594 C.ar        1 MOL      -0.0544
      4 C4        -22.3522    2.0457  -25.1616 C.ar        1 MOL       0.0090
      5 C5        -21.2254    1.1530  -25.1098 C.ar        1 MOL      -0.0074
      6 C6        -20.6105    0.8542  -23.8585 C.ar        1 MOL       0.0533
      7 C9        -21.4123    0.8798  -27.5518 C.ar        1 MOL      -0.0784
      8 C10       -20.7666    0.6107  -26.3387 C.ar        1 MOL      -0.0698
      9 O14       -17.8387    0.5139  -23.8156 O.co2       1 MOL      -0.4801
     10 S11       -19.3098   -0.2964  -23.6186 S.o2        1 MOL      -0.1641
     11 O12       -19.3726   -1.6067  -24.6860 O.co2       1 MOL      -0.4801
     12 O13       -19.3889   -0.9218  -22.0470 O.co2       1 MOL      -0.4801
     13 C8        -22.5205    1.7337  -27.5814 C.ar        1 MOL      -0.0461
     14 C7        -22.9930    2.3254  -26.3983 C.ar        1 MOL       0.0492
     15 N15       -24.0566    3.1553  -26.5062 N.pl3       1 MOL      -0.3324
     16 H1        -20.6087    1.3686  -21.7899 H           1 MOL       0.0631
     17 H2        -22.4689    2.8667  -21.8894 H           1 MOL       0.0585
     18 H3        -23.6059    3.2678  -23.9521 H           1 MOL       0.0631
     19 H4        -21.0627    0.4635  -28.4172 H           1 MOL       0.0573
     20 H5        -19.9318    0.0224  -26.3795 H           1 MOL       0.0468
     21 H6        -22.9700    1.9306  -28.4834 H           1 MOL       0.0463
     22 H7        -24.4148    3.6053  -25.7294 H           1 MOL       0.1757
     23 H8        -24.4556    3.3270  -27.3731 H           1 MOL       0.1757
@<TRIPOS>BOND
     1     1     2  ar
     2     1     6  ar
     3     2     3  ar
     4     3     4  ar
     5     4     5  ar
     6     4    14  ar
     7     5     6  ar
     8     5     8  ar
     9     6    10   1
    10     8     7  ar
    11     7    13  ar
    12    10     9  ar
    13    10    11  ar
    14    10    12  ar
    15    13    14  ar
    16    14    15   1
    17     1    16   1
    18     2    17   1
    19     3    18   1
    20     7    19   1
    21     8    20   1
    22    13    21   1
    23    15    22   1
    24    15    23   1
@<TRIPOS>SUBSTRUCTURE
     1  MOL      1

