@<TRIPOS>MOLECULE
3cft_ligand_010
    23    24
SMALL
GAST_HUCK
****
This file was generated by PARSER (from files_GN.cpp)

@<TRIPOS>ATOM
      1 C1        -21.8169    1.9012  -28.5117 C.ar        1 MOL      -0.0429
      2 C2        -21.9746    2.9550  -27.6021 C.ar        1 MOL      -0.0622
      3 C3        -22.3443    2.6904  -26.2771 C.ar        1 MOL      -0.0544
      4 C4        -22.5947    1.3674  -25.8446 C.ar        1 MOL       0.0090
      5 C5        -22.4760    0.2905  -26.7835 C.ar        1 MOL      -0.0074
      6 C6        -22.0361    0.5618  -28.1166 C.ar        1 MOL       0.0533
      7 C9        -23.2229   -1.2597  -25.0202 C.ar        1 MOL      -0.0784
      8 C10       -22.8248   -1.0138  -26.3443 C.ar        1 MOL      -0.0698
      9 O14       -23.1244   -0.7884  -30.3126 O.co2       1 MOL      -0.4801
     10 S11       -21.7407   -0.6615  -29.3411 S.o2        1 MOL      -0.1641
     11 O12       -21.3998   -2.1679  -28.6534 O.co2       1 MOL      -0.4801
     12 O13       -20.4189   -0.2373  -30.3099 O.co2       1 MOL      -0.4801
     13 C8        -23.2806   -0.2071  -24.0980 C.ar        1 MOL      -0.0461
     14 C7        -22.9752    1.1063  -24.4999 C.ar        1 MOL       0.0492
     15 N15       -23.0624    2.0589  -23.5513 N.pl3       1 MOL      -0.3324
     16 H1        -21.5417    2.1320  -29.4676 H           1 MOL       0.0631
     17 H2        -21.8099    3.9196  -27.9005 H           1 MOL       0.0585
     18 H3        -22.4417    3.4866  -25.6402 H           1 MOL       0.0631
     19 H4        -23.4741   -2.2053  -24.7233 H           1 MOL       0.0573
     20 H5        -22.8288   -1.8066  -26.9831 H           1 MOL       0.0468
     21 H6        -23.5688   -0.4056  -23.1339 H           1 MOL       0.0463
     22 H7        -22.8407    2.9804  -23.7536 H           1 MOL       0.1757
     23 H8        -23.3309    1.8136  -22.6524 H           1 MOL       0.1757
@<TRIPOS>BOND
     1     1     2  ar
     2     1     6  ar
     3     2     3  ar
     4     3     4  ar
     5     4     5  ar
     6     4    14  ar
     7     5     6  ar
     8     5     8  ar
     9     6    10   1
    10     8     7  ar
    11     7    13  ar
    12    10     9  ar
    13    10    11  ar
    14    10    12  ar
    15    13    14  ar
    16    14    15   1
    17     1    16   1
    18     2    17   1
    19     3    18   1
    20     7    19   1
    21     8    20   1
    22    13    21   1
    23    15    22   1
    24    15    23   1
@<TRIPOS>SUBSTRUCTURE
     1  MOL      1

