@<TRIPOS>MOLECULE
3cft_ligand_013
    23    24
SMALL
GAST_HUCK
****
This file was generated by PARSER (from files_GN.cpp)

@<TRIPOS>ATOM
      1 C1        -21.5600   -0.2440  -22.8673 C.ar        1 MOL      -0.0429
      2 C2        -20.5981   -1.2486  -22.7194 C.ar        1 MOL      -0.0622
      3 C3        -20.0331   -1.8415  -23.8541 C.ar        1 MOL      -0.0544
      4 C4        -20.4305   -1.4516  -25.1548 C.ar        1 MOL       0.0090
      5 C5        -21.4259   -0.4250  -25.3059 C.ar        1 MOL      -0.0074
      6 C6        -21.9846    0.1977  -24.1421 C.ar        1 MOL       0.0533
      7 C9        -21.2365   -0.6857  -27.7494 C.ar        1 MOL      -0.0784
      8 C10       -21.8214   -0.0816  -26.6236 C.ar        1 MOL      -0.0698
      9 O14       -22.7497    2.5839  -22.8884 O.co2       1 MOL      -0.4801
     10 S11       -23.2043    1.4649  -24.0722 S.o2        1 MOL      -0.1641
     11 O12       -24.6585    0.7473  -23.5954 O.co2       1 MOL      -0.4801
     12 O13       -23.4614    2.3223  -25.5061 O.co2       1 MOL      -0.4801
     13 C8        -20.2600   -1.6767  -27.5898 C.ar        1 MOL      -0.0461
     14 C7        -19.8560   -2.0769  -26.3020 C.ar        1 MOL       0.0492
     15 N15       -18.9331   -3.0605  -26.2384 N.pl3       1 MOL      -0.3324
     16 H1        -21.9533    0.1645  -22.0096 H           1 MOL       0.0631
     17 H2        -20.3148   -1.5478  -21.7877 H           1 MOL       0.0585
     18 H3        -19.3293   -2.5676  -23.7087 H           1 MOL       0.0631
     19 H4        -21.5335   -0.4088  -28.6900 H           1 MOL       0.0573
     20 H5        -22.5477    0.6007  -26.8046 H           1 MOL       0.0468
     21 H6        -19.8608   -2.1120  -28.4210 H           1 MOL       0.0463
     22 H7        -18.6324   -3.4052  -25.3899 H           1 MOL       0.1757
     23 H8        -18.5897   -3.4483  -27.0609 H           1 MOL       0.1757
@<TRIPOS>BOND
     1     1     2  ar
     2     1     6  ar
     3     2     3  ar
     4     3     4  ar
     5     4     5  ar
     6     4    14  ar
     7     5     6  ar
     8     5     8  ar
     9     6    10   1
    10     8     7  ar
    11     7    13  ar
    12    10     9  ar
    13    10    11  ar
    14    10    12  ar
    15    13    14  ar
    16    14    15   1
    17     1    16   1
    18     2    17   1
    19     3    18   1
    20     7    19   1
    21     8    20   1
    22    13    21   1
    23    15    22   1
    24    15    23   1
@<TRIPOS>SUBSTRUCTURE
     1  MOL      1

