@<TRIPOS>MOLECULE
3cft_ligand_012
    23    24
SMALL
GAST_HUCK
****
This file was generated by PARSER (from files_GN.cpp)

@<TRIPOS>ATOM
      1 C1        -22.6564   -1.0271  -26.3556 C.ar        1 MOL      -0.0429
      2 C2        -23.5379   -1.6545  -25.4680 C.ar        1 MOL      -0.0622
      3 C3        -23.2649   -1.6640  -24.0965 C.ar        1 MOL      -0.0544
      4 C4        -22.0926   -1.0612  -23.5855 C.ar        1 MOL       0.0090
      5 C5        -21.1740   -0.4318  -24.4904 C.ar        1 MOL      -0.0074
      6 C6        -21.4746   -0.4005  -25.8900 C.ar        1 MOL       0.0533
      7 C9        -19.7223    0.0906  -22.5722 C.ar        1 MOL      -0.0784
      8 C10       -19.9818    0.1175  -23.9506 C.ar        1 MOL      -0.0698
      9 O14       -19.6394    1.6798  -26.5685 O.co2       1 MOL      -0.4801
     10 S11       -20.5069    0.3510  -27.1508 S.o2        1 MOL      -0.1641
     11 O12       -21.5029    0.8933  -28.4085 O.co2       1 MOL      -0.4801
     12 O13       -19.4398   -0.7945  -27.7943 O.co2       1 MOL      -0.4801
     13 C8        -20.6357   -0.5051  -21.6944 C.ar        1 MOL      -0.0461
     14 C7        -21.8160   -1.0945  -22.1863 C.ar        1 MOL       0.0492
     15 N15       -22.6380   -1.6624  -21.2810 N.pl3       1 MOL      -0.3324
     16 H1        -22.8940   -1.0488  -27.3516 H           1 MOL       0.0631
     17 H2        -24.3763   -2.1171  -25.8182 H           1 MOL       0.0585
     18 H3        -23.9251   -2.1321  -23.4743 H           1 MOL       0.0631
     19 H4        -18.8568    0.5091  -22.2214 H           1 MOL       0.0573
     20 H5        -19.2671    0.5420  -24.5440 H           1 MOL       0.0468
     21 H6        -20.4266   -0.5015  -20.6921 H           1 MOL       0.0463
     22 H7        -23.4764   -2.0713  -21.5487 H           1 MOL       0.1757
     23 H8        -22.3908   -1.6652  -20.3425 H           1 MOL       0.1757
@<TRIPOS>BOND
     1     1     2  ar
     2     1     6  ar
     3     2     3  ar
     4     3     4  ar
     5     4     5  ar
     6     4    14  ar
     7     5     6  ar
     8     5     8  ar
     9     6    10   1
    10     8     7  ar
    11     7    13  ar
    12    10     9  ar
    13    10    11  ar
    14    10    12  ar
    15    13    14  ar
    16    14    15   1
    17     1    16   1
    18     2    17   1
    19     3    18   1
    20     7    19   1
    21     8    20   1
    22    13    21   1
    23    15    22   1
    24    15    23   1
@<TRIPOS>SUBSTRUCTURE
     1  MOL      1

