@<TRIPOS>MOLECULE
3cft_ligand_008
    23    24
SMALL
GAST_HUCK
****
This file was generated by PARSER (from files_GN.cpp)

@<TRIPOS>ATOM
      1 C1        -20.8749    1.5442  -24.8602 C.ar        1 MOL      -0.0429
      2 C2        -20.0860    0.6692  -24.1024 C.ar        1 MOL      -0.0622
      3 C3        -19.8209   -0.6225  -24.5744 C.ar        1 MOL      -0.0544
      4 C4        -20.3444   -1.0643  -25.8140 C.ar        1 MOL       0.0090
      5 C5        -21.1399   -0.1622  -26.5971 C.ar        1 MOL      -0.0074
      6 C6        -21.4116    1.1509  -26.1059 C.ar        1 MOL       0.0533
      7 C9        -21.3928   -1.9280  -28.2933 C.ar        1 MOL      -0.0784
      8 C10       -21.6269   -0.6181  -27.8495 C.ar        1 MOL      -0.0698
      9 O14       -21.4599    2.8549  -28.3251 O.co2       1 MOL      -0.4801
     10 S11       -22.3529    2.3488  -26.9785 S.o2        1 MOL      -0.1641
     11 O12       -22.6931    3.6922  -26.0121 O.co2       1 MOL      -0.4801
     12 O13       -23.8095    1.6939  -27.5341 O.co2       1 MOL      -0.4801
     13 C8        -20.6395   -2.8092  -27.5064 C.ar        1 MOL      -0.0461
     14 C7        -20.0887   -2.3825  -26.2849 C.ar        1 MOL       0.0492
     15 N15       -19.3258   -3.2760  -25.6246 N.pl3       1 MOL      -0.3324
     16 H1        -21.0486    2.4774  -24.4815 H           1 MOL       0.0631
     17 H2        -19.7009    0.9755  -23.2044 H           1 MOL       0.0585
     18 H3        -19.2460   -1.2319  -23.9926 H           1 MOL       0.0631
     19 H4        -21.7720   -2.2426  -29.1888 H           1 MOL       0.0573
     20 H5        -22.1713   -0.0120  -28.4634 H           1 MOL       0.0468
     21 H6        -20.4851   -3.7670  -27.8380 H           1 MOL       0.0463
     22 H7        -18.9085   -3.0444  -24.7805 H           1 MOL       0.1757
     23 H8        -19.1680   -4.1504  -26.0142 H           1 MOL       0.1757
@<TRIPOS>BOND
     1     1     2  ar
     2     1     6  ar
     3     2     3  ar
     4     3     4  ar
     5     4     5  ar
     6     4    14  ar
     7     5     6  ar
     8     5     8  ar
     9     6    10   1
    10     8     7  ar
    11     7    13  ar
    12    10     9  ar
    13    10    11  ar
    14    10    12  ar
    15    13    14  ar
    16    14    15   1
    17     1    16   1
    18     2    17   1
    19     3    18   1
    20     7    19   1
    21     8    20   1
    22    13    21   1
    23    15    22   1
    24    15    23   1
@<TRIPOS>SUBSTRUCTURE
     1  MOL      1

