@<TRIPOS>MOLECULE
3cft_ligand_002
    23    24
SMALL
GAST_HUCK
****
This file was generated by PARSER (from files_GN.cpp)

@<TRIPOS>ATOM
      1 C1        -22.2729    0.1137  -27.0468 C.ar        1 MOL      -0.0429
      2 C2        -22.8707    1.3195  -26.6530 C.ar        1 MOL      -0.0622
      3 C3        -22.4847    1.9314  -25.4563 C.ar        1 MOL      -0.0544
      4 C4        -21.4866    1.3575  -24.6306 C.ar        1 MOL       0.0090
      5 C5        -20.8643    0.1306  -25.0447 C.ar        1 MOL      -0.0074
      6 C6        -21.2807   -0.5069  -26.2532 C.ar        1 MOL       0.0533
      7 C9        -19.4717    0.2212  -23.0142 C.ar        1 MOL      -0.0784
      8 C10       -19.8384   -0.3938  -24.2174 C.ar        1 MOL      -0.0698
      9 O14       -19.1718   -1.6750  -27.6622 O.co2       1 MOL      -0.4801
     10 S11       -20.6260   -2.0146  -26.8739 S.o2        1 MOL      -0.1641
     11 O12       -21.6708   -2.7394  -27.9888 O.co2       1 MOL      -0.4801
     12 O13       -20.3495   -3.1316  -25.6381 O.co2       1 MOL      -0.4801
     13 C8        -20.1013    1.4061  -22.6098 C.ar        1 MOL      -0.0461
     14 C7        -21.0974    1.9844  -23.4152 C.ar        1 MOL       0.0492
     15 N15       -21.6434    3.1342  -22.9632 N.pl3       1 MOL      -0.3324
     16 H1        -22.5749   -0.2982  -27.9364 H           1 MOL       0.0631
     17 H2        -23.5878    1.7511  -27.2403 H           1 MOL       0.0585
     18 H3        -22.9406    2.8112  -25.2016 H           1 MOL       0.0631
     19 H4        -18.7420   -0.1866  -22.4248 H           1 MOL       0.0573
     20 H5        -19.3213   -1.2278  -24.4722 H           1 MOL       0.0468
     21 H6        -19.8232    1.8431  -21.7268 H           1 MOL       0.0463
     22 H7        -22.3390    3.5747  -23.4682 H           1 MOL       0.1757
     23 H8        -21.3404    3.5198  -22.1258 H           1 MOL       0.1757
@<TRIPOS>BOND
     1     1     2  ar
     2     1     6  ar
     3     2     3  ar
     4     3     4  ar
     5     4     5  ar
     6     4    14  ar
     7     5     6  ar
     8     5     8  ar
     9     6    10   1
    10     8     7  ar
    11     7    13  ar
    12    10     9  ar
    13    10    11  ar
    14    10    12  ar
    15    13    14  ar
    16    14    15   1
    17     1    16   1
    18     2    17   1
    19     3    18   1
    20     7    19   1
    21     8    20   1
    22    13    21   1
    23    15    22   1
    24    15    23   1
@<TRIPOS>SUBSTRUCTURE
     1  MOL      1

