@<TRIPOS>MOLECULE
3cft_ligand_024
    23    24
SMALL
GAST_HUCK
****
This file was generated by PARSER (from files_GN.cpp)

@<TRIPOS>ATOM
      1 C1        -21.0618   -2.1723  -24.5198 C.ar        1 MOL      -0.0429
      2 C2        -21.0560   -2.0332  -25.9135 C.ar        1 MOL      -0.0622
      3 C3        -21.3883   -0.8044  -26.4980 C.ar        1 MOL      -0.0544
      4 C4        -21.7257    0.3142  -25.6989 C.ar        1 MOL       0.0090
      5 C5        -21.7268    0.1728  -24.2711 C.ar        1 MOL      -0.0074
      6 C6        -21.3973   -1.0862  -23.6823 C.ar        1 MOL       0.0533
      7 C9        -22.3861    2.5380  -24.0872 C.ar        1 MOL      -0.0784
      8 C10       -22.0540    1.3131  -23.4922 C.ar        1 MOL      -0.0698
      9 O14       -20.0692   -0.4609  -21.3092 O.co2       1 MOL      -0.4801
     10 S11       -21.3399   -1.3701  -21.9525 S.o2        1 MOL      -0.1641
     11 O12       -21.0977   -3.0033  -21.5859 O.co2       1 MOL      -0.4801
     12 O13       -22.7790   -0.8570  -21.2287 O.co2       1 MOL      -0.4801
     13 C8        -22.3885    2.6640  -25.4814 C.ar        1 MOL      -0.0461
     14 C7        -22.0523    1.5652  -26.2934 C.ar        1 MOL       0.0492
     15 N15       -22.0546    1.7743  -27.6265 N.pl3       1 MOL      -0.3324
     16 H1        -20.8090   -3.0829  -24.1299 H           1 MOL       0.0631
     17 H2        -20.8081   -2.8302  -26.5053 H           1 MOL       0.0585
     18 H3        -21.3727   -0.7427  -27.5178 H           1 MOL       0.0631
     19 H4        -22.6180    3.3428  -23.5021 H           1 MOL       0.0573
     20 H5        -22.0534    1.2814  -22.4737 H           1 MOL       0.0468
     21 H6        -22.6275    3.5683  -25.8982 H           1 MOL       0.0463
     22 H7        -21.8255    1.0612  -28.2408 H           1 MOL       0.1757
     23 H8        -22.2774    2.6505  -27.9772 H           1 MOL       0.1757
@<TRIPOS>BOND
     1     1     2  ar
     2     1     6  ar
     3     2     3  ar
     4     3     4  ar
     5     4     5  ar
     6     4    14  ar
     7     5     6  ar
     8     5     8  ar
     9     6    10   1
    10     8     7  ar
    11     7    13  ar
    12    10     9  ar
    13    10    11  ar
    14    10    12  ar
    15    13    14  ar
    16    14    15   1
    17     1    16   1
    18     2    17   1
    19     3    18   1
    20     7    19   1
    21     8    20   1
    22    13    21   1
    23    15    22   1
    24    15    23   1
@<TRIPOS>SUBSTRUCTURE
     1  MOL      1

