@<TRIPOS>MOLECULE
3cft_ligand_029
    23    24
SMALL
GAST_HUCK
****
This file was generated by PARSER (from files_GN.cpp)

@<TRIPOS>ATOM
      1 C1        -19.4916   -0.2030  -22.6403 C.ar        1 MOL      -0.0429
      2 C2        -18.9084   -0.6761  -23.8198 C.ar        1 MOL      -0.0622
      3 C3        -19.7184   -1.1568  -24.8571 C.ar        1 MOL      -0.0544
      4 C4        -21.1275   -1.1792  -24.7275 C.ar        1 MOL       0.0090
      5 C5        -21.7235   -0.7171  -23.5078 C.ar        1 MOL      -0.0074
      6 C6        -20.8905   -0.2213  -22.4606 C.ar        1 MOL       0.0533
      7 C9        -23.9383   -1.2555  -24.4287 C.ar        1 MOL      -0.0784
      8 C10       -23.1372   -0.7662  -23.3898 C.ar        1 MOL      -0.0698
      9 O14       -20.2623    0.7730  -19.8630 O.co2       1 MOL      -0.4801
     10 S11       -21.5065    0.4025  -20.9452 S.o2        1 MOL      -0.1641
     11 O12       -22.5239   -0.7374  -20.2193 O.co2       1 MOL      -0.4801
     12 O13       -22.3975    1.8032  -21.2629 O.co2       1 MOL      -0.4801
     13 C8        -23.3495   -1.6776  -25.6287 C.ar        1 MOL      -0.0461
     14 C7        -21.9523   -1.6465  -25.7876 C.ar        1 MOL       0.0492
     15 N15       -21.4592   -2.0810  -26.9662 N.pl3       1 MOL      -0.3324
     16 H1        -18.8736    0.1653  -21.9169 H           1 MOL       0.0631
     17 H2        -17.8916   -0.6598  -23.9245 H           1 MOL       0.0585
     18 H3        -19.2555   -1.4873  -25.7052 H           1 MOL       0.0631
     19 H4        -24.9536   -1.3003  -24.3093 H           1 MOL       0.0573
     20 H5        -23.6181   -0.4465  -22.5475 H           1 MOL       0.0468
     21 H6        -23.9524   -2.0168  -26.3835 H           1 MOL       0.0463
     22 H7        -20.5052   -2.0892  -27.1299 H           1 MOL       0.1757
     23 H8        -22.0637   -2.3919  -27.6575 H           1 MOL       0.1757
@<TRIPOS>BOND
     1     1     2  ar
     2     1     6  ar
     3     2     3  ar
     4     3     4  ar
     5     4     5  ar
     6     4    14  ar
     7     5     6  ar
     8     5     8  ar
     9     6    10   1
    10     8     7  ar
    11     7    13  ar
    12    10     9  ar
    13    10    11  ar
    14    10    12  ar
    15    13    14  ar
    16    14    15   1
    17     1    16   1
    18     2    17   1
    19     3    18   1
    20     7    19   1
    21     8    20   1
    22    13    21   1
    23    15    22   1
    24    15    23   1
@<TRIPOS>SUBSTRUCTURE
     1  MOL      1

