@<TRIPOS>MOLECULE
3cft_ligand_018
    23    24
SMALL
GAST_HUCK
****
This file was generated by PARSER (from files_GN.cpp)

@<TRIPOS>ATOM
      1 C1        -19.9147    1.2486  -23.8590 C.ar        1 MOL      -0.0429
      2 C2        -20.7554    2.3615  -23.7375 C.ar        1 MOL      -0.0622
      3 C3        -22.1477    2.1947  -23.7233 C.ar        1 MOL      -0.0544
      4 C4        -22.7236    0.9097  -23.8250 C.ar        1 MOL       0.0090
      5 C5        -21.8704   -0.2301  -23.9520 C.ar        1 MOL      -0.0074
      6 C6        -20.4503   -0.0521  -23.9576 C.ar        1 MOL       0.0533
      7 C9        -23.8676   -1.6649  -24.0398 C.ar        1 MOL      -0.0784
      8 C10       -22.4740   -1.5069  -24.0821 C.ar        1 MOL      -0.0698
      9 O14       -19.7563   -2.6831  -23.1314 O.co2       1 MOL      -0.4801
     10 S11       -19.3042   -1.3700  -24.1020 S.o2        1 MOL      -0.1641
     11 O12       -17.7625   -0.8669  -23.6467 O.co2       1 MOL      -0.4801
     12 O13       -19.2466   -1.8635  -25.7205 O.co2       1 MOL      -0.4801
     13 C8        -24.6960   -0.5473  -23.8827 C.ar        1 MOL      -0.0461
     14 C7        -24.1390    0.7428  -23.8011 C.ar        1 MOL       0.0492
     15 N15       -25.0097    1.7688  -23.7212 N.pl3       1 MOL      -0.3324
     16 H1        -18.9049    1.4082  -23.8766 H           1 MOL       0.0631
     17 H2        -20.3549    3.3054  -23.6610 H           1 MOL       0.0585
     18 H3        -22.7263    3.0301  -23.6404 H           1 MOL       0.0631
     19 H4        -24.2844   -2.5930  -24.1325 H           1 MOL       0.0573
     20 H5        -21.9180   -2.3483  -24.2190 H           1 MOL       0.0468
     21 H6        -25.7107   -0.6787  -23.8562 H           1 MOL       0.0463
     22 H7        -24.7009    2.6828  -23.7020 H           1 MOL       0.1757
     23 H8        -25.9641    1.5947  -23.7107 H           1 MOL       0.1757
@<TRIPOS>BOND
     1     1     2  ar
     2     1     6  ar
     3     2     3  ar
     4     3     4  ar
     5     4     5  ar
     6     4    14  ar
     7     5     6  ar
     8     5     8  ar
     9     6    10   1
    10     8     7  ar
    11     7    13  ar
    12    10     9  ar
    13    10    11  ar
    14    10    12  ar
    15    13    14  ar
    16    14    15   1
    17     1    16   1
    18     2    17   1
    19     3    18   1
    20     7    19   1
    21     8    20   1
    22    13    21   1
    23    15    22   1
    24    15    23   1
@<TRIPOS>SUBSTRUCTURE
     1  MOL      1

