@<TRIPOS>MOLECULE
3cj2_ligand_093
    37    38
SMALL
GAST_HUCK
****
This file was generated by PARSER (from files_GN.cpp)

@<TRIPOS>ATOM
      1 BR1       -28.2986    6.6777  -15.1093 Br          1 SX3      -0.0605
      2 C11       -27.1886    6.7610  -16.5995 C.ar        1 SX3       0.0047
      3 C10       -26.0028    7.5145  -16.5546 C.ar        1 SX3      -0.0437
      4 C12       -27.5384    6.0698  -17.7715 C.ar        1 SX3      -0.0597
      5 C13       -26.7001    6.1267  -18.8996 C.ar        1 SX3      -0.0356
      6 C14       -25.5071    6.8784  -18.8633 C.ar        1 SX3       0.0599
      7 N2        -24.7438    6.9096  -19.9745 N.pl3       1 SX3      -0.3308
      8 C9        -25.1480    7.5772  -17.6797 C.ar        1 SX3       0.0698
      9 C8        -23.9823    8.3300  -17.6052 C.2         1 SX3       0.1999
     10 O1        -24.1751    9.5349  -17.7230 O.2         1 SX3      -0.3919
     11 N1        -22.7366    7.8283  -17.4799 N.am        1 SX3      -0.2741
     12 C6        -22.4514    6.4103  -17.3131 C.3         1 SX3       0.0356
     13 C4        -21.7484    6.1299  -15.9525 C.3         1 SX3      -0.0232
     14 C5        -22.7583    6.1244  -14.7731 C.3         1 SX3      -0.0606
     15 C3        -20.5339    7.0907  -15.7432 C.3         1 SX3      -0.0442
     16 C7        -21.5541    8.6798  -17.4712 C.3         1 SX3       0.0356
     17 C2        -20.7897    8.5853  -16.1189 C.3         1 SX3      -0.0232
     18 C1        -21.4806    9.4215  -15.0052 C.3         1 SX3      -0.0606
     19 H1        -25.7649    8.0150  -15.6945 H           1 SX3       0.0663
     20 H2        -28.4016    5.5222  -17.8074 H           1 SX3       0.0644
     21 H3        -26.9705    5.6219  -19.7481 H           1 SX3       0.0535
     22 H4        -25.0204    6.4246  -20.7678 H           1 SX3       0.1755
     23 H5        -23.9170    7.4164  -19.9854 H           1 SX3       0.1755
     24 H6        -21.7914    6.0885  -18.1238 H           1 SX3       0.0524
     25 H7        -23.3327    5.7684  -17.3827 H           1 SX3       0.0524
     26 H8        -21.3424    5.1162  -16.0009 H           1 SX3       0.0318
     27 H9        -22.2402    5.9515  -13.8300 H           1 SX3       0.0233
     28 H10       -23.4867    5.3227  -14.9074 H           1 SX3       0.0233
     29 H11       -23.3034    7.0639  -14.7079 H           1 SX3       0.0233
     30 H12       -19.7222    6.7284  -16.3841 H           1 SX3       0.0272
     31 H13       -20.1660    7.0145  -14.7154 H           1 SX3       0.0272
     32 H14       -21.7695    9.7293  -17.6768 H           1 SX3       0.0524
     33 H15       -20.8892    8.3535  -18.2743 H           1 SX3       0.0524
     34 H16       -19.8057    9.0457  -16.2667 H           1 SX3       0.0318
     35 H17       -21.0081    9.2435  -14.0376 H           1 SX3       0.0233
     36 H18       -22.5413    9.1940  -14.9251 H           1 SX3       0.0233
     37 H19       -21.3868   10.4829  -15.2366 H           1 SX3       0.0233
@<TRIPOS>BOND
     1     1     2   1
     2     2     3  ar
     3     2     4  ar
     4     3     8  ar
     5     4     5  ar
     6     5     6  ar
     7     6     7   1
     8     6     8  ar
     9     8     9   1
    10     9    10   2
    11     9    11  am
    12    11    12   1
    13    11    16   1
    14    12    13   1
    15    13    14   1
    16    13    15   1
    17    15    17   1
    18    16    17   1
    19    17    18   1
    20     3    19   1
    21     4    20   1
    22     5    21   1
    23     7    22   1
    24     7    23   1
    25    12    24   1
    26    12    25   1
    27    13    26   1
    28    14    27   1
    29    14    28   1
    30    14    29   1
    31    15    30   1
    32    15    31   1
    33    16    32   1
    34    16    33   1
    35    17    34   1
    36    18    35   1
    37    18    36   1
    38    18    37   1
@<TRIPOS>SUBSTRUCTURE
     1  SX3      2

