@<TRIPOS>MOLECULE
3cj2_ligand_010
    37    38
SMALL
GAST_HUCK
****
This file was generated by PARSER (from files_GN.cpp)

@<TRIPOS>ATOM
      1 BR1       -24.3856    6.7367  -20.8156 Br          1 SX3      -0.0605
      2 C11       -23.5381    6.5358  -19.1715 C.ar        1 SX3       0.0047
      3 C10       -23.9233    7.3376  -18.0808 C.ar        1 SX3      -0.0437
      4 C12       -22.5102    5.5886  -19.0143 C.ar        1 SX3      -0.0597
      5 C13       -21.8568    5.4594  -17.7766 C.ar        1 SX3      -0.0356
      6 C14       -22.2309    6.2641  -16.6795 C.ar        1 SX3       0.0599
      7 N2        -21.5964    6.0852  -15.5035 N.pl3       1 SX3      -0.3308
      8 C9        -23.2768    7.2155  -16.8303 C.ar        1 SX3       0.0698
      9 C8        -23.6597    8.0602  -15.8043 C.2         1 SX3       0.1999
     10 O1        -22.8589    8.9633  -15.5939 O.2         1 SX3      -0.3919
     11 N1        -24.8108    7.9568  -15.1098 N.am        1 SX3      -0.2741
     12 C6        -25.7147    6.8185  -15.2191 C.3         1 SX3       0.0356
     13 C4        -25.8697    6.1134  -13.8387 C.3         1 SX3      -0.0232
     14 C5        -26.8618    4.9231  -13.8993 C.3         1 SX3      -0.0606
     15 C3        -26.2967    7.1380  -12.7469 C.3         1 SX3      -0.0442
     16 C7        -25.2142    8.9716  -14.1482 C.3         1 SX3       0.0356
     17 C2        -25.3539    8.3743  -12.7172 C.3         1 SX3      -0.0232
     18 C1        -25.8324    9.4427  -11.6978 C.3         1 SX3      -0.0606
     19 H1        -24.6793    8.0186  -18.2117 H           1 SX3       0.0663
     20 H2        -22.2310    5.0038  -19.8033 H           1 SX3       0.0644
     21 H3        -21.1087    4.7661  -17.6775 H           1 SX3       0.0535
     22 H4        -20.8887    5.4272  -15.4259 H           1 SX3       0.1755
     23 H5        -21.8423    6.6166  -14.7284 H           1 SX3       0.1755
     24 H6        -25.3833    6.0662  -15.9391 H           1 SX3       0.0524
     25 H7        -26.6901    7.1730  -15.5667 H           1 SX3       0.0524
     26 H8        -24.8875    5.7097  -13.5620 H           1 SX3       0.0318
     27 H9        -26.9266    4.4411  -12.9197 H           1 SX3       0.0233
     28 H10       -26.5218    4.1791  -14.6230 H           1 SX3       0.0233
     29 H11       -27.8570    5.2647  -14.1891 H           1 SX3       0.0233
     30 H12       -26.2715    6.6496  -11.7680 H           1 SX3       0.0272
     31 H13       -27.3229    7.4672  -12.9356 H           1 SX3       0.0272
     32 H14       -26.1761    9.3862  -14.4683 H           1 SX3       0.0524
     33 H15       -24.5222    9.8185  -14.0969 H           1 SX3       0.0524
     34 H16       -24.3624    8.0337  -12.4000 H           1 SX3       0.0318
     35 H17       -25.8888    9.0116  -10.6971 H           1 SX3       0.0233
     36 H18       -26.8175    9.8248  -11.9676 H           1 SX3       0.0233
     37 H19       -25.1318   10.2795  -11.6643 H           1 SX3       0.0233
@<TRIPOS>BOND
     1     1     2   1
     2     2     3  ar
     3     2     4  ar
     4     3     8  ar
     5     4     5  ar
     6     5     6  ar
     7     6     7   1
     8     6     8  ar
     9     8     9   1
    10     9    10   2
    11     9    11  am
    12    11    12   1
    13    11    16   1
    14    12    13   1
    15    13    14   1
    16    13    15   1
    17    15    17   1
    18    16    17   1
    19    17    18   1
    20     3    19   1
    21     4    20   1
    22     5    21   1
    23     7    22   1
    24     7    23   1
    25    12    24   1
    26    12    25   1
    27    13    26   1
    28    14    27   1
    29    14    28   1
    30    14    29   1
    31    15    30   1
    32    15    31   1
    33    16    32   1
    34    16    33   1
    35    17    34   1
    36    18    35   1
    37    18    36   1
    38    18    37   1
@<TRIPOS>SUBSTRUCTURE
     1  SX3      2

