@<TRIPOS>MOLECULE
3cj2_ligand_037
    37    38
SMALL
GAST_HUCK
****
This file was generated by PARSER (from files_GN.cpp)

@<TRIPOS>ATOM
      1 BR1       -17.3649    0.6749  -24.9659 Br          1 SX3      -0.0605
      2 C11       -17.1396    1.6098  -23.3728 C.ar        1 SX3       0.0047
      3 C10       -18.2645    2.0569  -22.6563 C.ar        1 SX3      -0.0437
      4 C12       -15.8502    1.8769  -22.8872 C.ar        1 SX3      -0.0597
      5 C13       -15.6838    2.6061  -21.6968 C.ar        1 SX3      -0.0356
      6 C14       -16.8063    3.0705  -20.9806 C.ar        1 SX3       0.0599
      7 N2        -16.5864    3.7842  -19.8578 N.pl3       1 SX3      -0.3308
      8 C9        -18.1170    2.7734  -21.4431 C.ar        1 SX3       0.0698
      9 C8        -19.2567    3.1817  -20.7474 C.2         1 SX3       0.1999
     10 O1        -19.3664    4.3984  -20.6438 O.2         1 SX3      -0.3919
     11 N1        -20.1856    2.3645  -20.2049 N.am        1 SX3      -0.2741
     12 C6        -21.4169    2.8770  -19.6155 C.3         1 SX3       0.0356
     13 C4        -22.6668    2.2661  -20.3148 C.3         1 SX3      -0.0232
     14 C5        -23.9845    2.7520  -19.6542 C.3         1 SX3      -0.0606
     15 C3        -22.5780    0.7108  -20.3428 C.3         1 SX3      -0.0442
     16 C7        -20.0432    0.9145  -20.1287 C.3         1 SX3       0.0356
     17 C2        -21.2078    0.2201  -20.8966 C.3         1 SX3      -0.0232
     18 C1        -21.0879   -1.3247  -20.8504 C.3         1 SX3      -0.0606
     19 H1        -19.1962    1.8616  -23.0318 H           1 SX3       0.0663
     20 H2        -15.0313    1.5554  -23.4065 H           1 SX3       0.0644
     21 H3        -14.7375    2.7972  -21.3583 H           1 SX3       0.0535
     22 H4        -15.6840    3.9752  -19.5661 H           1 SX3       0.1755
     23 H5        -17.3342    4.1119  -19.3345 H           1 SX3       0.1755
     24 H6        -21.5044    3.9650  -19.6718 H           1 SX3       0.0524
     25 H7        -21.4263    2.6230  -18.5526 H           1 SX3       0.0524
     26 H8        -22.6711    2.6218  -21.3516 H           1 SX3       0.0318
     27 H9        -24.8461    2.3412  -20.1828 H           1 SX3       0.0233
     28 H10       -24.0484    3.8412  -19.6938 H           1 SX3       0.0233
     29 H11       -24.0300    2.4373  -18.6092 H           1 SX3       0.0233
     30 H12       -23.3806    0.3173  -20.9719 H           1 SX3       0.0272
     31 H13       -22.7220    0.3222  -19.3318 H           1 SX3       0.0272
     32 H14       -20.0623    0.6129  -19.0751 H           1 SX3       0.0524
     33 H15       -19.0916    0.5462  -20.5199 H           1 SX3       0.0524
     34 H16       -21.1435    0.5179  -21.9481 H           1 SX3       0.0318
     35 H17       -21.9135   -1.7830  -21.3961 H           1 SX3       0.0233
     36 H18       -21.1027   -1.6873  -19.8211 H           1 SX3       0.0233
     37 H19       -20.1537   -1.6374  -21.3193 H           1 SX3       0.0233
@<TRIPOS>BOND
     1     1     2   1
     2     2     3  ar
     3     2     4  ar
     4     3     8  ar
     5     4     5  ar
     6     5     6  ar
     7     6     7   1
     8     6     8  ar
     9     8     9   1
    10     9    10   2
    11     9    11  am
    12    11    12   1
    13    11    16   1
    14    12    13   1
    15    13    14   1
    16    13    15   1
    17    15    17   1
    18    16    17   1
    19    17    18   1
    20     3    19   1
    21     4    20   1
    22     5    21   1
    23     7    22   1
    24     7    23   1
    25    12    24   1
    26    12    25   1
    27    13    26   1
    28    14    27   1
    29    14    28   1
    30    14    29   1
    31    15    30   1
    32    15    31   1
    33    16    32   1
    34    16    33   1
    35    17    34   1
    36    18    35   1
    37    18    36   1
    38    18    37   1
@<TRIPOS>SUBSTRUCTURE
     1  SX3      2

