@<TRIPOS>MOLECULE
3cj2_ligand_096
    37    38
SMALL
GAST_HUCK
****
This file was generated by PARSER (from files_GN.cpp)

@<TRIPOS>ATOM
      1 BR1       -24.1248    6.2858  -19.0436 Br          1 SX3      -0.0605
      2 C11       -23.3120    7.4163  -17.8104 C.ar        1 SX3       0.0047
      3 C10       -24.0635    7.9701  -16.7570 C.ar        1 SX3      -0.0437
      4 C12       -21.9482    7.7321  -17.9412 C.ar        1 SX3      -0.0597
      5 C13       -21.3333    8.5976  -17.0205 C.ar        1 SX3      -0.0356
      6 C14       -22.0739    9.1529  -15.9575 C.ar        1 SX3       0.0599
      7 N2        -21.4295    9.9647  -15.0954 N.pl3       1 SX3      -0.3308
      8 C9        -23.4536    8.8428  -15.8263 C.ar        1 SX3       0.0698
      9 C8        -24.2135    9.3861  -14.8029 C.2         1 SX3       0.1999
     10 O1        -24.0701    8.8000  -13.7372 O.2         1 SX3      -0.3919
     11 N1        -24.9748   10.4941  -14.9101 N.am        1 SX3      -0.2741
     12 C6        -25.2166   11.1902  -16.1682 C.3         1 SX3       0.0356
     13 C4        -26.7467   11.2493  -16.4691 C.3         1 SX3      -0.0232
     14 C5        -27.0569   11.9995  -17.7905 C.3         1 SX3      -0.0606
     15 C3        -27.5088   11.8823  -15.2664 C.3         1 SX3      -0.0442
     16 C7        -25.6137   11.1047  -13.7520 C.3         1 SX3       0.0356
     17 C2        -27.1598   11.1647  -13.9288 C.3         1 SX3      -0.0232
     18 C1        -27.8561   11.8465  -12.7196 C.3         1 SX3      -0.0606
     19 H1        -25.0561    7.7319  -16.6737 H           1 SX3       0.0663
     20 H2        -21.4024    7.3397  -18.7108 H           1 SX3       0.0644
     21 H3        -20.3407    8.8194  -17.1286 H           1 SX3       0.0535
     22 H4        -20.4845   10.1480  -15.2164 H           1 SX3       0.1755
     23 H5        -21.9003   10.3545  -14.3422 H           1 SX3       0.1755
     24 H6        -24.7157   10.7272  -17.0206 H           1 SX3       0.0524
     25 H7        -24.8127   12.2048  -16.0927 H           1 SX3       0.0524
     26 H8        -27.1032   10.2211  -16.5899 H           1 SX3       0.0318
     27 H9        -28.1329   12.0087  -17.9754 H           1 SX3       0.0233
     28 H10       -26.5732   11.5010  -18.6320 H           1 SX3       0.0233
     29 H11       -26.7022   13.0309  -17.7423 H           1 SX3       0.0233
     30 H12       -28.5863   11.8140  -15.4420 H           1 SX3       0.0272
     31 H13       -27.2493   12.9435  -15.1896 H           1 SX3       0.0272
     32 H14       -25.2293   12.1228  -13.6422 H           1 SX3       0.0524
     33 H15       -25.3901   10.5878  -12.8157 H           1 SX3       0.0524
     34 H16       -27.5352   10.1371  -13.9840 H           1 SX3       0.0318
     35 H17       -28.9396   11.8539  -12.8576 H           1 SX3       0.0233
     36 H18       -27.5144   12.8775  -12.6061 H           1 SX3       0.0233
     37 H19       -27.6355   11.3029  -11.7985 H           1 SX3       0.0233
@<TRIPOS>BOND
     1     1     2   1
     2     2     3  ar
     3     2     4  ar
     4     3     8  ar
     5     4     5  ar
     6     5     6  ar
     7     6     7   1
     8     6     8  ar
     9     8     9   1
    10     9    10   2
    11     9    11  am
    12    11    12   1
    13    11    16   1
    14    12    13   1
    15    13    14   1
    16    13    15   1
    17    15    17   1
    18    16    17   1
    19    17    18   1
    20     3    19   1
    21     4    20   1
    22     5    21   1
    23     7    22   1
    24     7    23   1
    25    12    24   1
    26    12    25   1
    27    13    26   1
    28    14    27   1
    29    14    28   1
    30    14    29   1
    31    15    30   1
    32    15    31   1
    33    16    32   1
    34    16    33   1
    35    17    34   1
    36    18    35   1
    37    18    36   1
    38    18    37   1
@<TRIPOS>SUBSTRUCTURE
     1  SX3      2

