@<TRIPOS>MOLECULE
3cj2_ligand_025
    37    38
SMALL
GAST_HUCK
****
This file was generated by PARSER (from files_GN.cpp)

@<TRIPOS>ATOM
      1 BR1       -27.4611    9.5419  -18.2627 Br          1 SX3      -0.0605
      2 C11       -26.3340    8.9765  -19.6385 C.ar        1 SX3       0.0047
      3 C10       -25.4763    7.8743  -19.4470 C.ar        1 SX3      -0.0437
      4 C12       -26.3247    9.6755  -20.8523 C.ar        1 SX3      -0.0597
      5 C13       -25.4721    9.2657  -21.8934 C.ar        1 SX3      -0.0356
      6 C14       -24.6031    8.1719  -21.7070 C.ar        1 SX3       0.0599
      7 N2        -23.7877    7.8448  -22.7363 N.pl3       1 SX3      -0.3308
      8 C9        -24.5867    7.4631  -20.4743 C.ar        1 SX3       0.0698
      9 C8        -23.7621    6.3576  -20.2681 C.2         1 SX3       0.1999
     10 O1        -23.7886    5.5662  -21.2018 O.2         1 SX3      -0.3919
     11 N1        -23.0144    6.0927  -19.1690 N.am        1 SX3      -0.2741
     12 C6        -22.2617    4.8476  -19.0429 C.3         1 SX3       0.0356
     13 C4        -20.7447    5.1293  -18.8188 C.3         1 SX3      -0.0232
     14 C5        -19.9109    3.8243  -18.6981 C.3         1 SX3      -0.0606
     15 C3        -20.5634    6.0312  -17.5642 C.3         1 SX3      -0.0442
     16 C7        -22.8990    6.9924  -18.0271 C.3         1 SX3       0.0356
     17 C2        -21.4156    7.3305  -17.6741 C.3         1 SX3      -0.0232
     18 C1        -21.3189    8.1766  -16.3758 C.3         1 SX3      -0.0606
     19 H1        -25.5118    7.3687  -18.5585 H           1 SX3       0.0663
     20 H2        -26.9381   10.4794  -20.9916 H           1 SX3       0.0644
     21 H3        -25.4747    9.7866  -22.7729 H           1 SX3       0.0535
     22 H4        -23.8171    8.3521  -23.5624 H           1 SX3       0.1755
     23 H5        -23.1701    7.1037  -22.6555 H           1 SX3       0.1755
     24 H6        -22.3526    4.1845  -19.9056 H           1 SX3       0.0524
     25 H7        -22.6599    4.2913  -18.1891 H           1 SX3       0.0524
     26 H8        -20.3670    5.6816  -19.6883 H           1 SX3       0.0318
     27 H9        -18.8575    4.0606  -18.5410 H           1 SX3       0.0233
     28 H10       -19.9972    3.2403  -19.6146 H           1 SX3       0.0233
     29 H11       -20.2597    3.2183  -17.8616 H           1 SX3       0.0233
     30 H12       -19.5078    6.2975  -17.4574 H           1 SX3       0.0272
     31 H13       -20.8605    5.4736  -16.6702 H           1 SX3       0.0272
     32 H14       -23.3693    6.5038  -17.1714 H           1 SX3       0.0524
     33 H15       -23.4254    7.9390  -18.1751 H           1 SX3       0.0524
     34 H16       -21.0068    7.9356  -18.4923 H           1 SX3       0.0318
     35 H17       -20.2786    8.4286  -16.1632 H           1 SX3       0.0233
     36 H18       -21.7262    7.6277  -15.5239 H           1 SX3       0.0233
     37 H19       -21.8786    9.1085  -16.4885 H           1 SX3       0.0233
@<TRIPOS>BOND
     1     1     2   1
     2     2     3  ar
     3     2     4  ar
     4     3     8  ar
     5     4     5  ar
     6     5     6  ar
     7     6     7   1
     8     6     8  ar
     9     8     9   1
    10     9    10   2
    11     9    11  am
    12    11    12   1
    13    11    16   1
    14    12    13   1
    15    13    14   1
    16    13    15   1
    17    15    17   1
    18    16    17   1
    19    17    18   1
    20     3    19   1
    21     4    20   1
    22     5    21   1
    23     7    22   1
    24     7    23   1
    25    12    24   1
    26    12    25   1
    27    13    26   1
    28    14    27   1
    29    14    28   1
    30    14    29   1
    31    15    30   1
    32    15    31   1
    33    16    32   1
    34    16    33   1
    35    17    34   1
    36    18    35   1
    37    18    36   1
    38    18    37   1
@<TRIPOS>SUBSTRUCTURE
     1  SX3      2

