@<TRIPOS>MOLECULE
3cj2_ligand_029
    37    38
SMALL
GAST_HUCK
****
This file was generated by PARSER (from files_GN.cpp)

@<TRIPOS>ATOM
      1 BR1       -29.2539    4.3799  -15.3472 Br          1 SX3      -0.0605
      2 C11       -28.1729    5.6415  -14.5045 C.ar        1 SX3       0.0047
      3 C10       -26.7742    5.5198  -14.5581 C.ar        1 SX3      -0.0437
      4 C12       -28.7566    6.7161  -13.8108 C.ar        1 SX3      -0.0597
      5 C13       -27.9422    7.6782  -13.1862 C.ar        1 SX3      -0.0356
      6 C14       -26.5368    7.5681  -13.2418 C.ar        1 SX3       0.0599
      7 N2        -25.8006    8.5214  -12.6353 N.pl3       1 SX3      -0.3308
      8 C9        -25.9415    6.4797  -13.9296 C.ar        1 SX3       0.0698
      9 C8        -24.5673    6.3068  -13.9988 C.2         1 SX3       0.1999
     10 O1        -24.1446    5.4717  -13.2093 O.2         1 SX3      -0.3919
     11 N1        -23.7395    6.9372  -14.8543 N.am        1 SX3      -0.2741
     12 C6        -24.1603    8.0103  -15.7446 C.3         1 SX3       0.0356
     13 C4        -23.3329    9.3011  -15.4619 C.3         1 SX3      -0.0232
     14 C5        -23.7444   10.4586  -16.4060 C.3         1 SX3      -0.0606
     15 C3        -21.8082    8.9982  -15.5593 C.3         1 SX3      -0.0442
     16 C7        -22.3314    6.5726  -14.9670 C.3         1 SX3       0.0356
     17 C2        -21.4149    7.7930  -14.6564 C.3         1 SX3      -0.0232
     18 C1        -19.9108    7.4387  -14.7964 C.3         1 SX3      -0.0606
     19 H1        -26.3680    4.7337  -15.0736 H           1 SX3       0.0663
     20 H2        -29.7740    6.8023  -13.7646 H           1 SX3       0.0644
     21 H3        -28.3828    8.4535  -12.6832 H           1 SX3       0.0535
     22 H4        -26.2367    9.2610  -12.1832 H           1 SX3       0.1755
     23 H5        -24.8339    8.4868  -12.6718 H           1 SX3       0.1755
     24 H6        -25.2170    8.2633  -15.6548 H           1 SX3       0.0524
     25 H7        -24.0157    7.6909  -16.7817 H           1 SX3       0.0524
     26 H8        -23.5476    9.6278  -14.4383 H           1 SX3       0.0318
     27 H9        -23.1616   11.3539  -16.1866 H           1 SX3       0.0233
     28 H10       -24.8047   10.6954  -16.2813 H           1 SX3       0.0233
     29 H11       -23.5632   10.1790  -17.4431 H           1 SX3       0.0233
     30 H12       -21.2434    9.8821  -15.2498 H           1 SX3       0.0272
     31 H13       -21.5453    8.7758  -16.5982 H           1 SX3       0.0272
     32 H14       -22.1399    6.2229  -15.9875 H           1 SX3       0.0524
     33 H15       -22.0418    5.7492  -14.3066 H           1 SX3       0.0524
     34 H16       -21.5870    8.0824  -13.6141 H           1 SX3       0.0318
     35 H17       -19.2886    8.3051  -14.5606 H           1 SX3       0.0233
     36 H18       -19.6759    7.1046  -15.8096 H           1 SX3       0.0233
     37 H19       -19.6608    6.6390  -14.0982 H           1 SX3       0.0233
@<TRIPOS>BOND
     1     1     2   1
     2     2     3  ar
     3     2     4  ar
     4     3     8  ar
     5     4     5  ar
     6     5     6  ar
     7     6     7   1
     8     6     8  ar
     9     8     9   1
    10     9    10   2
    11     9    11  am
    12    11    12   1
    13    11    16   1
    14    12    13   1
    15    13    14   1
    16    13    15   1
    17    15    17   1
    18    16    17   1
    19    17    18   1
    20     3    19   1
    21     4    20   1
    22     5    21   1
    23     7    22   1
    24     7    23   1
    25    12    24   1
    26    12    25   1
    27    13    26   1
    28    14    27   1
    29    14    28   1
    30    14    29   1
    31    15    30   1
    32    15    31   1
    33    16    32   1
    34    16    33   1
    35    17    34   1
    36    18    35   1
    37    18    36   1
    38    18    37   1
@<TRIPOS>SUBSTRUCTURE
     1  SX3      2

