@<TRIPOS>MOLECULE
3cj2_ligand_053
    37    38
SMALL
GAST_HUCK
****
This file was generated by PARSER (from files_GN.cpp)

@<TRIPOS>ATOM
      1 BR1       -31.4870   16.1770  -19.6503 Br          1 SX3      -0.0605
      2 C11       -29.8123   16.6083  -20.3347 C.ar        1 SX3       0.0047
      3 C10       -29.6711   17.6816  -21.2330 C.ar        1 SX3      -0.0437
      4 C12       -28.6837   15.8681  -19.9447 C.ar        1 SX3      -0.0597
      5 C13       -27.4175   16.1919  -20.4616 C.ar        1 SX3      -0.0356
      6 C14       -27.2675   17.2664  -21.3633 C.ar        1 SX3       0.0599
      7 N2        -26.0321   17.5172  -21.8379 N.pl3       1 SX3      -0.3308
      8 C9        -28.3988   18.0356  -21.7451 C.ar        1 SX3       0.0698
      9 C8        -28.3016   19.1243  -22.6072 C.2         1 SX3       0.1999
     10 O1        -28.7537   18.9012  -23.7243 O.2         1 SX3      -0.3919
     11 N1        -27.8350   20.3470  -22.2752 N.am        1 SX3      -0.2741
     12 C6        -27.8237   21.4514  -23.2274 C.3         1 SX3       0.0356
     13 C4        -28.7806   22.5842  -22.7471 C.3         1 SX3      -0.0232
     14 C5        -28.8210   23.7764  -23.7390 C.3         1 SX3      -0.0606
     15 C3        -28.3823   23.0398  -21.3123 C.3         1 SX3      -0.0442
     16 C7        -27.3853   20.7076  -20.9365 C.3         1 SX3       0.0356
     17 C2        -28.2824   21.8315  -20.3337 C.3         1 SX3      -0.0232
     18 C1        -27.7787   22.2750  -18.9349 C.3         1 SX3      -0.0606
     19 H1        -30.5047   18.2129  -21.5021 H           1 SX3       0.0663
     20 H2        -28.7814   15.0958  -19.2812 H           1 SX3       0.0644
     21 H3        -26.6052   15.6393  -20.1718 H           1 SX3       0.0535
     22 H4        -25.2885   16.9602  -21.5559 H           1 SX3       0.1755
     23 H5        -25.8758   18.2438  -22.4659 H           1 SX3       0.1755
     24 H6        -28.1179   21.1584  -24.2384 H           1 SX3       0.0524
     25 H7        -26.8045   21.8423  -23.3102 H           1 SX3       0.0524
     26 H8        -29.7924   22.1686  -22.7017 H           1 SX3       0.0318
     27 H9        -29.5115   24.5428  -23.3807 H           1 SX3       0.0233
     28 H10       -29.1656   23.4404  -24.7193 H           1 SX3       0.0233
     29 H11       -27.8301   24.2213  -23.8498 H           1 SX3       0.0233
     30 H12       -29.1289   23.7464  -20.9376 H           1 SX3       0.0272
     31 H13       -27.4197   23.5590  -21.3523 H           1 SX3       0.0272
     32 H14       -26.3506   21.0591  -20.9958 H           1 SX3       0.0524
     33 H15       -27.3863   19.8676  -20.2399 H           1 SX3       0.0524
     34 H16       -29.2895   21.4211  -20.2033 H           1 SX3       0.0318
     35 H17       -28.4270   23.0517  -18.5245 H           1 SX3       0.0233
     36 H18       -26.7607   22.6670  -18.9929 H           1 SX3       0.0233
     37 H19       -27.7872   21.4249  -18.2507 H           1 SX3       0.0233
@<TRIPOS>BOND
     1     1     2   1
     2     2     3  ar
     3     2     4  ar
     4     3     8  ar
     5     4     5  ar
     6     5     6  ar
     7     6     7   1
     8     6     8  ar
     9     8     9   1
    10     9    10   2
    11     9    11  am
    12    11    12   1
    13    11    16   1
    14    12    13   1
    15    13    14   1
    16    13    15   1
    17    15    17   1
    18    16    17   1
    19    17    18   1
    20     3    19   1
    21     4    20   1
    22     5    21   1
    23     7    22   1
    24     7    23   1
    25    12    24   1
    26    12    25   1
    27    13    26   1
    28    14    27   1
    29    14    28   1
    30    14    29   1
    31    15    30   1
    32    15    31   1
    33    16    32   1
    34    16    33   1
    35    17    34   1
    36    18    35   1
    37    18    36   1
    38    18    37   1
@<TRIPOS>SUBSTRUCTURE
     1  SX3      2

