@<TRIPOS>MOLECULE
3cj2_ligand_021
    37    38
SMALL
GAST_HUCK
****
This file was generated by PARSER (from files_GN.cpp)

@<TRIPOS>ATOM
      1 BR1       -20.1795    4.9029  -18.8438 Br          1 SX3      -0.0605
      2 C11       -20.7214    5.8448  -17.3341 C.ar        1 SX3       0.0047
      3 C10       -22.0798    5.8929  -16.9779 C.ar        1 SX3      -0.0437
      4 C12       -19.7684    6.5055  -16.5463 C.ar        1 SX3      -0.0597
      5 C13       -20.1691    7.2080  -15.3975 C.ar        1 SX3      -0.0356
      6 C14       -21.5296    7.2581  -15.0281 C.ar        1 SX3       0.0599
      7 N2        -21.8424    7.9060  -13.8917 N.pl3       1 SX3      -0.3308
      8 C9        -22.5116    6.6093  -15.8345 C.ar        1 SX3       0.0698
      9 C8        -23.8687    6.6038  -15.5065 C.2         1 SX3       0.1999
     10 O1        -24.3419    5.4730  -15.4337 O.2         1 SX3      -0.3919
     11 N1        -24.6382    7.6780  -15.2357 N.am        1 SX3      -0.2741
     12 C6        -24.1870    9.0549  -15.4088 C.3         1 SX3       0.0356
     13 C4        -25.1484    9.8889  -16.3039 C.3         1 SX3      -0.0232
     14 C5        -24.7176   11.3785  -16.3699 C.3         1 SX3      -0.0606
     15 C3        -26.6191    9.7528  -15.8125 C.3         1 SX3      -0.0442
     16 C7        -25.9998    7.5430  -14.7200 C.3         1 SX3       0.0356
     17 C2        -27.0282    8.2639  -15.6389 C.3         1 SX3      -0.0232
     18 C1        -28.4777    8.1330  -15.1007 C.3         1 SX3      -0.0606
     19 H1        -22.7567    5.3956  -17.5589 H           1 SX3       0.0663
     20 H2        -18.7784    6.4671  -16.7991 H           1 SX3       0.0644
     21 H3        -19.4564    7.6760  -14.8261 H           1 SX3       0.0535
     22 H4        -21.1444    8.3530  -13.3813 H           1 SX3       0.1755
     23 H5        -22.7559    7.9364  -13.5744 H           1 SX3       0.1755
     24 H6        -23.2016    9.1232  -15.8690 H           1 SX3       0.0524
     25 H7        -24.1177    9.5157  -14.4206 H           1 SX3       0.0524
     26 H8        -25.0903    9.4791  -17.3215 H           1 SX3       0.0318
     27 H9        -25.3808   11.9286  -17.0407 H           1 SX3       0.0233
     28 H10       -23.6975   11.4651  -16.7483 H           1 SX3       0.0233
     29 H11       -24.7623   11.8398  -15.3823 H           1 SX3       0.0233
     30 H12       -27.2815   10.2320  -16.5387 H           1 SX3       0.0272
     31 H13       -26.7306   10.2730  -14.8567 H           1 SX3       0.0272
     32 H14       -26.0293    7.9839  -13.7191 H           1 SX3       0.0524
     33 H15       -26.3212    6.5041  -14.6042 H           1 SX3       0.0524
     34 H16       -27.0001    7.7830  -16.6228 H           1 SX3       0.0318
     35 H17       -29.1763    8.6330  -15.7730 H           1 SX3       0.0233
     36 H18       -28.5632    8.5814  -14.1088 H           1 SX3       0.0233
     37 H19       -28.7628    7.0810  -15.0339 H           1 SX3       0.0233
@<TRIPOS>BOND
     1     1     2   1
     2     2     3  ar
     3     2     4  ar
     4     3     8  ar
     5     4     5  ar
     6     5     6  ar
     7     6     7   1
     8     6     8  ar
     9     8     9   1
    10     9    10   2
    11     9    11  am
    12    11    12   1
    13    11    16   1
    14    12    13   1
    15    13    14   1
    16    13    15   1
    17    15    17   1
    18    16    17   1
    19    17    18   1
    20     3    19   1
    21     4    20   1
    22     5    21   1
    23     7    22   1
    24     7    23   1
    25    12    24   1
    26    12    25   1
    27    13    26   1
    28    14    27   1
    29    14    28   1
    30    14    29   1
    31    15    30   1
    32    15    31   1
    33    16    32   1
    34    16    33   1
    35    17    34   1
    36    18    35   1
    37    18    36   1
    38    18    37   1
@<TRIPOS>SUBSTRUCTURE
     1  SX3      2

