@<TRIPOS>MOLECULE
3cj2_ligand_041
    37    38
SMALL
GAST_HUCK
****
This file was generated by PARSER (from files_GN.cpp)

@<TRIPOS>ATOM
      1 BR1       -19.2986    4.2561  -18.6784 Br          1 SX3      -0.0605
      2 C11       -19.0344    2.6613  -19.5981 C.ar        1 SX3       0.0047
      3 C10       -17.8166    2.4215  -20.2582 C.ar        1 SX3      -0.0437
      4 C12       -20.0482    1.6893  -19.6236 C.ar        1 SX3      -0.0597
      5 C13       -19.8426    0.4697  -20.2952 C.ar        1 SX3      -0.0356
      6 C14       -18.6210    0.2132  -20.9496 C.ar        1 SX3       0.0599
      7 N2        -18.4699   -0.9774  -21.5604 N.pl3       1 SX3      -0.3308
      8 C9        -17.6005    1.2018  -20.9453 C.ar        1 SX3       0.0698
      9 C8        -16.3780    0.9986  -21.5708 C.2         1 SX3       0.1999
     10 O1        -15.6009    0.3206  -20.9106 O.2         1 SX3      -0.3919
     11 N1        -16.0347    1.4802  -22.7848 N.am        1 SX3      -0.2741
     12 C6        -16.9600    2.1947  -23.6549 C.3         1 SX3       0.0356
     13 C4        -17.1640    1.4590  -25.0179 C.3         1 SX3      -0.0232
     14 C5        -18.1579    0.2723  -24.9192 C.3         1 SX3      -0.0606
     15 C3        -15.7880    1.0650  -25.6432 C.3         1 SX3      -0.0442
     16 C7        -14.6982    1.3060  -23.3386 C.3         1 SX3       0.0356
     17 C2        -14.7345    0.4693  -24.6513 C.3         1 SX3      -0.0232
     18 C1        -14.9056   -1.0486  -24.3603 C.3         1 SX3      -0.0606
     19 H1        -17.0843    3.1360  -20.2265 H           1 SX3       0.0663
     20 H2        -20.9370    1.8639  -19.1493 H           1 SX3       0.0644
     21 H3        -20.5914   -0.2314  -20.3010 H           1 SX3       0.0535
     22 H4        -19.1598   -1.6542  -21.4960 H           1 SX3       0.1755
     23 H5        -17.6378   -1.1845  -22.0145 H           1 SX3       0.1755
     24 H6        -16.5469    3.1883  -23.8496 H           1 SX3       0.0524
     25 H7        -17.9374    2.3742  -23.2006 H           1 SX3       0.0524
     26 H8        -17.6341    2.1644  -25.7065 H           1 SX3       0.0318
     27 H9        -18.3060   -0.1917  -25.8973 H           1 SX3       0.0233
     28 H10       -19.1287    0.6269  -24.5739 H           1 SX3       0.0233
     29 H11       -17.8085   -0.4802  -24.2233 H           1 SX3       0.0233
     30 H12       -15.3567    1.9794  -26.0653 H           1 SX3       0.0272
     31 H13       -15.9342    0.3820  -26.4855 H           1 SX3       0.0272
     32 H14       -13.9921    0.8393  -22.6469 H           1 SX3       0.0524
     33 H15       -14.2788    2.2917  -23.5622 H           1 SX3       0.0524
     34 H16       -13.7532    0.5710  -25.1341 H           1 SX3       0.0318
     35 H17       -15.0734   -1.6026  -25.2851 H           1 SX3       0.0233
     36 H18       -15.7344   -1.2356  -23.6819 H           1 SX3       0.0233
     37 H19       -14.0005   -1.4385  -23.8912 H           1 SX3       0.0233
@<TRIPOS>BOND
     1     1     2   1
     2     2     3  ar
     3     2     4  ar
     4     3     8  ar
     5     4     5  ar
     6     5     6  ar
     7     6     7   1
     8     6     8  ar
     9     8     9   1
    10     9    10   2
    11     9    11  am
    12    11    12   1
    13    11    16   1
    14    12    13   1
    15    13    14   1
    16    13    15   1
    17    15    17   1
    18    16    17   1
    19    17    18   1
    20     3    19   1
    21     4    20   1
    22     5    21   1
    23     7    22   1
    24     7    23   1
    25    12    24   1
    26    12    25   1
    27    13    26   1
    28    14    27   1
    29    14    28   1
    30    14    29   1
    31    15    30   1
    32    15    31   1
    33    16    32   1
    34    16    33   1
    35    17    34   1
    36    18    35   1
    37    18    36   1
    38    18    37   1
@<TRIPOS>SUBSTRUCTURE
     1  SX3      2

