@<TRIPOS>MOLECULE
3cj2_ligand_000
    37    38
SMALL
GAST_HUCK
****
This file was generated by PARSER (from files_GN.cpp)

@<TRIPOS>ATOM
      1 BR1       -24.7821    7.1431  -20.5672 Br          1 SX3      -0.0605
      2 C11       -23.5226    5.9165  -19.9574 C.ar        1 SX3       0.0047
      3 C10       -22.4869    6.3422  -19.1079 C.ar        1 SX3      -0.0437
      4 C12       -23.6068    4.5659  -20.3356 C.ar        1 SX3      -0.0597
      5 C13       -22.6552    3.6446  -19.8654 C.ar        1 SX3      -0.0356
      6 C14       -21.6261    4.0616  -18.9940 C.ar        1 SX3       0.0599
      7 N2        -20.7663    3.1230  -18.5491 N.pl3       1 SX3      -0.3308
      8 C9        -21.5423    5.4225  -18.5872 C.ar        1 SX3       0.0698
      9 C8        -20.5461    5.8865  -17.7241 C.2         1 SX3       0.1999
     10 O1        -19.4062    5.7226  -18.1469 O.2         1 SX3      -0.3919
     11 N1        -20.7546    6.4977  -16.5375 N.am        1 SX3      -0.2741
     12 C6        -19.6748    7.1268  -15.7879 C.3         1 SX3       0.0356
     13 C4        -19.9699    8.6386  -15.5541 C.3         1 SX3      -0.0232
     14 C5        -18.8464    9.3254  -14.7324 C.3         1 SX3      -0.0606
     15 C3        -21.3674    8.8193  -14.8882 C.3         1 SX3      -0.0442
     16 C7        -22.0520    6.5725  -15.8774 C.3         1 SX3       0.0356
     17 C2        -22.4740    8.0609  -15.6817 C.3         1 SX3      -0.0232
     18 C1        -23.8636    8.1813  -15.0047 C.3         1 SX3      -0.0606
     19 H1        -22.4302    7.3352  -18.8712 H           1 SX3       0.0663
     20 H2        -24.3562    4.2528  -20.9565 H           1 SX3       0.0644
     21 H3        -22.7256    2.6646  -20.1530 H           1 SX3       0.0535
     22 H4        -20.8537    2.2038  -18.8477 H           1 SX3       0.1755
     23 H5        -20.0607    3.3591  -17.9262 H           1 SX3       0.1755
     24 H6        -18.7052    7.0459  -16.2835 H           1 SX3       0.0524
     25 H7        -19.5775    6.6213  -14.8228 H           1 SX3       0.0524
     26 H8        -19.9997    9.1246  -16.5341 H           1 SX3       0.0318
     27 H9        -19.0647   10.3886  -14.6124 H           1 SX3       0.0233
     28 H10       -17.8873    9.2324  -15.2468 H           1 SX3       0.0233
     29 H11       -18.7572    8.8702  -13.7432 H           1 SX3       0.0233
     30 H12       -21.6133    9.8846  -14.8470 H           1 SX3       0.0272
     31 H13       -21.3327    8.4414  -13.8613 H           1 SX3       0.0272
     32 H14       -21.9748    6.0859  -14.8993 H           1 SX3       0.0524
     33 H15       -22.8429    6.0395  -16.4084 H           1 SX3       0.0524
     34 H16       -22.5570    8.5273  -16.6689 H           1 SX3       0.0318
     35 H17       -24.1342    9.2316  -14.8797 H           1 SX3       0.0233
     36 H18       -23.8600    7.7004  -14.0246 H           1 SX3       0.0233
     37 H19       -24.6250    7.7052  -15.6264 H           1 SX3       0.0233
@<TRIPOS>BOND
     1     1     2   1
     2     2     3  ar
     3     2     4  ar
     4     3     8  ar
     5     4     5  ar
     6     5     6  ar
     7     6     7   1
     8     6     8  ar
     9     8     9   1
    10     9    10   2
    11     9    11  am
    12    11    12   1
    13    11    16   1
    14    12    13   1
    15    13    14   1
    16    13    15   1
    17    15    17   1
    18    16    17   1
    19    17    18   1
    20     3    19   1
    21     4    20   1
    22     5    21   1
    23     7    22   1
    24     7    23   1
    25    12    24   1
    26    12    25   1
    27    13    26   1
    28    14    27   1
    29    14    28   1
    30    14    29   1
    31    15    30   1
    32    15    31   1
    33    16    32   1
    34    16    33   1
    35    17    34   1
    36    18    35   1
    37    18    36   1
    38    18    37   1
@<TRIPOS>SUBSTRUCTURE
     1  SX3      2

