@<TRIPOS>MOLECULE
3cj2_ligand_006
    37    38
SMALL
GAST_HUCK
****
This file was generated by PARSER (from files_GN.cpp)

@<TRIPOS>ATOM
      1 BR1       -24.8562    1.8268  -18.9876 Br          1 SX3      -0.0605
      2 C11       -23.6113    3.2003  -18.8446 C.ar        1 SX3       0.0047
      3 C10       -23.9432    4.3931  -18.1736 C.ar        1 SX3      -0.0437
      4 C12       -22.3341    3.0485  -19.4169 C.ar        1 SX3      -0.0597
      5 C13       -21.4121    4.1078  -19.3538 C.ar        1 SX3      -0.0356
      6 C14       -21.7636    5.3251  -18.7389 C.ar        1 SX3       0.0599
      7 N2        -20.8858    6.3433  -18.8204 N.pl3       1 SX3      -0.3308
      8 C9        -23.0208    5.4650  -18.0933 C.ar        1 SX3       0.0698
      9 C8        -23.4022    6.6267  -17.4236 C.2         1 SX3       0.1999
     10 O1        -24.2804    7.2526  -18.0047 O.2         1 SX3      -0.3919
     11 N1        -22.9757    7.0097  -16.1977 N.am        1 SX3      -0.2741
     12 C6        -23.6075    8.1064  -15.4743 C.3         1 SX3       0.0356
     13 C4        -22.5784    9.1804  -15.0067 C.3         1 SX3      -0.0232
     14 C5        -22.1492   10.1236  -16.1650 C.3         1 SX3      -0.0606
     15 C3        -21.3984    8.4995  -14.2454 C.3         1 SX3      -0.0442
     16 C7        -21.9530    6.2979  -15.4364 C.3         1 SX3       0.0356
     17 C2        -20.8020    7.2242  -14.9200 C.3         1 SX3      -0.0232
     18 C1        -19.7221    7.5492  -15.9826 C.3         1 SX3      -0.0606
     19 H1        -24.8747    4.4788  -17.7614 H           1 SX3       0.0663
     20 H2        -22.0900    2.1886  -19.9068 H           1 SX3       0.0644
     21 H3        -20.4976    3.9944  -19.7960 H           1 SX3       0.0535
     22 H4        -20.0194    6.2065  -19.2363 H           1 SX3       0.1755
     23 H5        -21.1078    7.2002  -18.4297 H           1 SX3       0.1755
     24 H6        -24.1037    7.6903  -14.5890 H           1 SX3       0.0524
     25 H7        -24.3971    8.6132  -16.0384 H           1 SX3       0.0524
     26 H8        -23.0890    9.8230  -14.2816 H           1 SX3       0.0318
     27 H9        -21.3279   10.7728  -15.8483 H           1 SX3       0.0233
     28 H10       -22.9913   10.7600  -16.4476 H           1 SX3       0.0233
     29 H11       -21.8440    9.5643  -17.0470 H           1 SX3       0.0233
     30 H12       -21.7849    8.1882  -13.2699 H           1 SX3       0.0272
     31 H13       -20.6083    9.2293  -14.0455 H           1 SX3       0.0272
     32 H14       -21.5053    5.4689  -15.9820 H           1 SX3       0.0524
     33 H15       -22.4432    5.8460  -14.5647 H           1 SX3       0.0524
     34 H16       -20.2685    6.6647  -14.1456 H           1 SX3       0.0318
     35 H17       -18.9328    8.1806  -15.5628 H           1 SX3       0.0233
     36 H18       -20.1668    8.0813  -16.8175 H           1 SX3       0.0233
     37 H19       -19.2619    6.6295  -16.3552 H           1 SX3       0.0233
@<TRIPOS>BOND
     1     1     2   1
     2     2     3  ar
     3     2     4  ar
     4     3     8  ar
     5     4     5  ar
     6     5     6  ar
     7     6     7   1
     8     6     8  ar
     9     8     9   1
    10     9    10   2
    11     9    11  am
    12    11    12   1
    13    11    16   1
    14    12    13   1
    15    13    14   1
    16    13    15   1
    17    15    17   1
    18    16    17   1
    19    17    18   1
    20     3    19   1
    21     4    20   1
    22     5    21   1
    23     7    22   1
    24     7    23   1
    25    12    24   1
    26    12    25   1
    27    13    26   1
    28    14    27   1
    29    14    28   1
    30    14    29   1
    31    15    30   1
    32    15    31   1
    33    16    32   1
    34    16    33   1
    35    17    34   1
    36    18    35   1
    37    18    36   1
    38    18    37   1
@<TRIPOS>SUBSTRUCTURE
     1  SX3      2

