@<TRIPOS>MOLECULE
3cj2_ligand_017
    37    38
SMALL
GAST_HUCK
****
This file was generated by PARSER (from files_GN.cpp)

@<TRIPOS>ATOM
      1 BR1       -26.9682    3.2000  -17.1415 Br          1 SX3      -0.0605
      2 C11       -25.2673    3.4011  -17.8670 C.ar        1 SX3       0.0047
      3 C10       -24.6059    4.6428  -17.8062 C.ar        1 SX3      -0.0437
      4 C12       -24.6422    2.3013  -18.4746 C.ar        1 SX3      -0.0597
      5 C13       -23.3558    2.4419  -19.0181 C.ar        1 SX3      -0.0356
      6 C14       -22.6713    3.6731  -18.9309 C.ar        1 SX3       0.0599
      7 N2        -21.4260    3.7168  -19.4523 N.pl3       1 SX3      -0.3308
      8 C9        -23.2898    4.7929  -18.3049 C.ar        1 SX3       0.0698
      9 C8        -22.6674    6.0425  -18.2225 C.2         1 SX3       0.1999
     10 O1        -22.2387    6.4328  -19.3030 O.2         1 SX3      -0.3919
     11 N1        -22.5728    6.8274  -17.1244 N.am        1 SX3      -0.2741
     12 C6        -22.0568    8.1959  -17.1767 C.3         1 SX3       0.0356
     13 C4        -23.1450    9.2027  -16.6974 C.3         1 SX3      -0.0232
     14 C5        -22.6402   10.6700  -16.7284 C.3         1 SX3      -0.0606
     15 C3        -23.6720    8.8023  -15.2877 C.3         1 SX3      -0.0442
     16 C7        -22.9705    6.3990  -15.7858 C.3         1 SX3       0.0356
     17 C2        -24.1181    7.3104  -15.2573 C.3         1 SX3      -0.0232
     18 C1        -24.6246    6.8939  -13.8547 C.3         1 SX3      -0.0606
     19 H1        -25.1002    5.4414  -17.4007 H           1 SX3       0.0663
     20 H2        -25.1179    1.3979  -18.5196 H           1 SX3       0.0644
     21 H3        -22.9135    1.6308  -19.4652 H           1 SX3       0.0535
     22 H4        -21.0514    2.9232  -19.8735 H           1 SX3       0.1755
     23 H5        -20.9011    4.5338  -19.4201 H           1 SX3       0.1755
     24 H6        -21.7340    8.4924  -18.1767 H           1 SX3       0.0524
     25 H7        -21.1704    8.2732  -16.5379 H           1 SX3       0.0524
     26 H8        -23.9877    9.1440  -17.3910 H           1 SX3       0.0318
     27 H9        -23.4297   11.3516  -16.4044 H           1 SX3       0.0233
     28 H10       -22.3550   10.9451  -17.7456 H           1 SX3       0.0233
     29 H11       -21.7772   10.7994  -16.0714 H           1 SX3       0.0233
     30 H12       -24.5270    9.4339  -15.0299 H           1 SX3       0.0272
     31 H13       -22.8918    8.9686  -14.5359 H           1 SX3       0.0272
     32 H14       -22.1032    6.4652  -15.1173 H           1 SX3       0.0524
     33 H15       -23.2905    5.3550  -15.7471 H           1 SX3       0.0524
     34 H16       -24.9636    7.2038  -15.9412 H           1 SX3       0.0318
     35 H17       -25.4469    7.5417  -13.5474 H           1 SX3       0.0233
     36 H18       -23.8246    6.9650  -13.1175 H           1 SX3       0.0233
     37 H19       -24.9930    5.8663  -13.8730 H           1 SX3       0.0233
@<TRIPOS>BOND
     1     1     2   1
     2     2     3  ar
     3     2     4  ar
     4     3     8  ar
     5     4     5  ar
     6     5     6  ar
     7     6     7   1
     8     6     8  ar
     9     8     9   1
    10     9    10   2
    11     9    11  am
    12    11    12   1
    13    11    16   1
    14    12    13   1
    15    13    14   1
    16    13    15   1
    17    15    17   1
    18    16    17   1
    19    17    18   1
    20     3    19   1
    21     4    20   1
    22     5    21   1
    23     7    22   1
    24     7    23   1
    25    12    24   1
    26    12    25   1
    27    13    26   1
    28    14    27   1
    29    14    28   1
    30    14    29   1
    31    15    30   1
    32    15    31   1
    33    16    32   1
    34    16    33   1
    35    17    34   1
    36    18    35   1
    37    18    36   1
    38    18    37   1
@<TRIPOS>SUBSTRUCTURE
     1  SX3      2

