@<TRIPOS>MOLECULE
3cj2_ligand_036
    37    38
SMALL
GAST_HUCK
****
This file was generated by PARSER (from files_GN.cpp)

@<TRIPOS>ATOM
      1 BR1       -21.9039    5.6274  -17.8929 Br          1 SX3      -0.0605
      2 C11       -20.3073    4.9700  -18.5932 C.ar        1 SX3       0.0047
      3 C10       -20.3252    3.9770  -19.5961 C.ar        1 SX3      -0.0437
      4 C12       -19.0887    5.4739  -18.1315 C.ar        1 SX3      -0.0597
      5 C13       -17.8862    5.0241  -18.7094 C.ar        1 SX3      -0.0356
      6 C14       -17.8955    4.0195  -19.6940 C.ar        1 SX3       0.0599
      7 N2        -16.6858    3.6484  -20.1659 N.pl3       1 SX3      -0.3308
      8 C9        -19.1272    3.4442  -20.1345 C.ar        1 SX3       0.0698
      9 C8        -19.1664    2.4324  -21.1078 C.2         1 SX3       0.1999
     10 O1        -18.4294    2.6624  -22.0683 O.2         1 SX3      -0.3919
     11 N1        -19.8769    1.2837  -21.0925 N.am        1 SX3      -0.2741
     12 C6        -20.8454    0.9217  -20.0637 C.3         1 SX3       0.0356
     13 C4        -22.2604    0.8822  -20.7229 C.3         1 SX3      -0.0232
     14 C5        -23.4029    0.6318  -19.7065 C.3         1 SX3      -0.0606
     15 C3        -22.2767   -0.1662  -21.8745 C.3         1 SX3      -0.0442
     16 C7        -19.7609    0.2705  -22.1445 C.3         1 SX3       0.0356
     17 C2        -21.1178    0.0617  -22.8900 C.3         1 SX3      -0.0232
     18 C1        -21.0422   -1.0889  -23.9297 C.3         1 SX3      -0.0606
     19 H1        -21.2346    3.6397  -19.9169 H           1 SX3       0.0663
     20 H2        -19.0708    6.1817  -17.3933 H           1 SX3       0.0644
     21 H3        -17.0076    5.4413  -18.3958 H           1 SX3       0.0535
     22 H4        -15.8824    4.0751  -19.8143 H           1 SX3       0.1755
     23 H5        -16.6041    2.9713  -20.8547 H           1 SX3       0.1755
     24 H6        -20.8571    1.5928  -19.2110 H           1 SX3       0.0524
     25 H7        -20.5936   -0.0580  -19.6492 H           1 SX3       0.0524
     26 H8        -22.4502    1.8632  -21.1687 H           1 SX3       0.0318
     27 H9        -24.3681    0.6600  -20.2182 H           1 SX3       0.0233
     28 H10       -23.4048    1.4080  -18.9388 H           1 SX3       0.0233
     29 H11       -23.2890   -0.3421  -19.2300 H           1 SX3       0.0233
     30 H12       -23.2310   -0.0992  -22.4064 H           1 SX3       0.0272
     31 H13       -22.2003   -1.1713  -21.4467 H           1 SX3       0.0272
     32 H14       -19.4425   -0.6764  -21.6912 H           1 SX3       0.0524
     33 H15       -19.0001    0.5023  -22.8997 H           1 SX3       0.0524
     34 H16       -21.3342    0.9843  -23.4389 H           1 SX3       0.0318
     35 H17       -21.9927   -1.1813  -24.4580 H           1 SX3       0.0233
     36 H18       -20.8222   -2.0389  -23.4413 H           1 SX3       0.0233
     37 H19       -20.2628   -0.8860  -24.6643 H           1 SX3       0.0233
@<TRIPOS>BOND
     1     1     2   1
     2     2     3  ar
     3     2     4  ar
     4     3     8  ar
     5     4     5  ar
     6     5     6  ar
     7     6     7   1
     8     6     8  ar
     9     8     9   1
    10     9    10   2
    11     9    11  am
    12    11    12   1
    13    11    16   1
    14    12    13   1
    15    13    14   1
    16    13    15   1
    17    15    17   1
    18    16    17   1
    19    17    18   1
    20     3    19   1
    21     4    20   1
    22     5    21   1
    23     7    22   1
    24     7    23   1
    25    12    24   1
    26    12    25   1
    27    13    26   1
    28    14    27   1
    29    14    28   1
    30    14    29   1
    31    15    30   1
    32    15    31   1
    33    16    32   1
    34    16    33   1
    35    17    34   1
    36    18    35   1
    37    18    36   1
    38    18    37   1
@<TRIPOS>SUBSTRUCTURE
     1  SX3      2

