@<TRIPOS>MOLECULE
3cj2_ligand_019
    37    38
SMALL
GAST_HUCK
****
This file was generated by PARSER (from files_GN.cpp)

@<TRIPOS>ATOM
      1 BR1       -20.8130    4.7238  -18.7000 Br          1 SX3      -0.0605
      2 C11       -21.1908    6.2609  -17.7186 C.ar        1 SX3       0.0047
      3 C10       -22.4820    6.8194  -17.7495 C.ar        1 SX3      -0.0437
      4 C12       -20.1856    6.8659  -16.9449 C.ar        1 SX3      -0.0597
      5 C13       -20.4574    8.0447  -16.2303 C.ar        1 SX3      -0.0356
      6 C14       -21.7524    8.6086  -16.2513 C.ar        1 SX3       0.0599
      7 N2        -21.9589    9.7391  -15.5476 N.pl3       1 SX3      -0.3308
      8 C9        -22.7851    7.9826  -17.0041 C.ar        1 SX3       0.0698
      9 C8        -24.0872    8.4799  -17.0177 C.2         1 SX3       0.1999
     10 O1        -24.2018    9.5370  -17.6255 O.2         1 SX3      -0.3919
     11 N1        -25.1381    7.9186  -16.3854 N.am        1 SX3      -0.2741
     12 C6        -26.4646    8.5211  -16.4035 C.3         1 SX3       0.0356
     13 C4        -26.9214    8.9213  -14.9662 C.3         1 SX3      -0.0232
     14 C5        -26.2470   10.2375  -14.4882 C.3         1 SX3      -0.0606
     15 C3        -26.7527    7.7148  -13.9845 C.3         1 SX3      -0.0442
     16 C7        -25.0513    6.6898  -15.6078 C.3         1 SX3       0.0356
     17 C2        -25.4147    6.9206  -14.1131 C.3         1 SX3      -0.0232
     18 C1        -24.2340    7.5294  -13.3089 C.3         1 SX3      -0.0606
     19 H1        -23.2078    6.3644  -18.3135 H           1 SX3       0.0663
     20 H2        -19.2464    6.4591  -16.9202 H           1 SX3       0.0644
     21 H3        -19.7063    8.4876  -15.6938 H           1 SX3       0.0535
     22 H4        -21.2288   10.1491  -15.0562 H           1 SX3       0.1755
     23 H5        -22.8305   10.1643  -15.5471 H           1 SX3       0.1755
     24 H6        -27.1746    7.7917  -16.8093 H           1 SX3       0.0524
     25 H7        -26.5392    9.4006  -17.0505 H           1 SX3       0.0524
     26 H8        -27.9952    9.1389  -15.0145 H           1 SX3       0.0318
     27 H9        -26.4956   10.4394  -13.4463 H           1 SX3       0.0233
     28 H10       -26.6091   11.0745  -15.0873 H           1 SX3       0.0233
     29 H11       -25.1641   10.1966  -14.5932 H           1 SX3       0.0233
     30 H12       -27.5661    7.0126  -14.1949 H           1 SX3       0.0272
     31 H13       -26.8930    8.0484  -12.9530 H           1 SX3       0.0272
     32 H14       -24.0769    6.2041  -15.6430 H           1 SX3       0.0524
     33 H15       -25.7420    5.9597  -16.0374 H           1 SX3       0.0524
     34 H16       -25.5846    5.9315  -13.6713 H           1 SX3       0.0318
     35 H17       -24.5154    7.6536  -12.2587 H           1 SX3       0.0233
     36 H18       -23.9372    8.4968  -13.7015 H           1 SX3       0.0233
     37 H19       -23.3667    6.8643  -13.3583 H           1 SX3       0.0233
@<TRIPOS>BOND
     1     1     2   1
     2     2     3  ar
     3     2     4  ar
     4     3     8  ar
     5     4     5  ar
     6     5     6  ar
     7     6     7   1
     8     6     8  ar
     9     8     9   1
    10     9    10   2
    11     9    11  am
    12    11    12   1
    13    11    16   1
    14    12    13   1
    15    13    14   1
    16    13    15   1
    17    15    17   1
    18    16    17   1
    19    17    18   1
    20     3    19   1
    21     4    20   1
    22     5    21   1
    23     7    22   1
    24     7    23   1
    25    12    24   1
    26    12    25   1
    27    13    26   1
    28    14    27   1
    29    14    28   1
    30    14    29   1
    31    15    30   1
    32    15    31   1
    33    16    32   1
    34    16    33   1
    35    17    34   1
    36    18    35   1
    37    18    36   1
    38    18    37   1
@<TRIPOS>SUBSTRUCTURE
     1  SX3      2

