@<TRIPOS>MOLECULE
3cj2_ligand_009
    37    38
SMALL
GAST_HUCK
****
This file was generated by PARSER (from files_GN.cpp)

@<TRIPOS>ATOM
      1 BR1       -26.6603    9.6611  -12.0592 Br          1 SX3      -0.0605
      2 C11       -26.1074   10.5925  -13.5739 C.ar        1 SX3       0.0047
      3 C10       -25.1778   10.0112  -14.4554 C.ar        1 SX3      -0.0437
      4 C12       -26.6004   11.8801  -13.8317 C.ar        1 SX3      -0.0597
      5 C13       -26.1860   12.5691  -14.9830 C.ar        1 SX3      -0.0356
      6 C14       -25.2316   12.0006  -15.8526 C.ar        1 SX3       0.0599
      7 N2        -24.8984   12.7314  -16.9348 N.pl3       1 SX3      -0.3308
      8 C9        -24.6620   10.7245  -15.5679 C.ar        1 SX3       0.0698
      9 C8        -23.7033   10.1172  -16.3972 C.2         1 SX3       0.1999
     10 O1        -23.9390   10.2610  -17.5868 O.2         1 SX3      -0.3919
     11 N1        -22.6068    9.4100  -16.0184 N.am        1 SX3      -0.2741
     12 C6        -21.6587    8.8538  -16.9842 C.3         1 SX3       0.0356
     13 C4        -21.4740    7.3165  -16.8071 C.3         1 SX3      -0.0232
     14 C5        -22.6911    6.5251  -17.3609 C.3         1 SX3      -0.0606
     15 C3        -21.0979    6.9957  -15.3258 C.3         1 SX3      -0.0442
     16 C7        -22.1823    9.2216  -14.6392 C.3         1 SX3       0.0356
     17 C2        -21.9842    7.7167  -14.2604 C.3         1 SX3      -0.0232
     18 C1        -23.3001    6.9477  -13.9505 C.3         1 SX3      -0.0606
     19 H1        -24.8717    9.0535  -14.2790 H           1 SX3       0.0663
     20 H2        -27.2687   12.3111  -13.1929 H           1 SX3       0.0644
     21 H3        -26.5786   13.4963  -15.1686 H           1 SX3       0.0535
     22 H4        -25.3270   13.5915  -17.0822 H           1 SX3       0.1755
     23 H5        -24.2219   12.4130  -17.5497 H           1 SX3       0.1755
     24 H6        -20.6826    9.3278  -16.8319 H           1 SX3       0.0524
     25 H7        -21.9182    9.0523  -18.0252 H           1 SX3       0.0524
     26 H8        -20.6163    7.0099  -17.4184 H           1 SX3       0.0318
     27 H9        -22.5906    5.4622  -17.1370 H           1 SX3       0.0233
     28 H10       -22.7433    6.6415  -18.4453 H           1 SX3       0.0233
     29 H11       -23.6298    6.8864  -16.9494 H           1 SX3       0.0233
     30 H12       -20.0615    7.3180  -15.1683 H           1 SX3       0.0272
     31 H13       -21.1046    5.9146  -15.1622 H           1 SX3       0.0272
     32 H14       -22.8385    9.6916  -13.9109 H           1 SX3       0.0524
     33 H15       -21.2184    9.7294  -14.5127 H           1 SX3       0.0524
     34 H16       -21.4186    7.7079  -13.3228 H           1 SX3       0.0318
     35 H17       -23.0811    5.8884  -13.7818 H           1 SX3       0.0233
     36 H18       -24.0119    7.0200  -14.7702 H           1 SX3       0.0233
     37 H19       -23.7690    7.3511  -13.0466 H           1 SX3       0.0233
@<TRIPOS>BOND
     1     1     2   1
     2     2     3  ar
     3     2     4  ar
     4     3     8  ar
     5     4     5  ar
     6     5     6  ar
     7     6     7   1
     8     6     8  ar
     9     8     9   1
    10     9    10   2
    11     9    11  am
    12    11    12   1
    13    11    16   1
    14    12    13   1
    15    13    14   1
    16    13    15   1
    17    15    17   1
    18    16    17   1
    19    17    18   1
    20     3    19   1
    21     4    20   1
    22     5    21   1
    23     7    22   1
    24     7    23   1
    25    12    24   1
    26    12    25   1
    27    13    26   1
    28    14    27   1
    29    14    28   1
    30    14    29   1
    31    15    30   1
    32    15    31   1
    33    16    32   1
    34    16    33   1
    35    17    34   1
    36    18    35   1
    37    18    36   1
    38    18    37   1
@<TRIPOS>SUBSTRUCTURE
     1  SX3      2

