@<TRIPOS>MOLECULE
3cj2_ligand_050
    37    38
SMALL
GAST_HUCK
****
This file was generated by PARSER (from files_GN.cpp)

@<TRIPOS>ATOM
      1 BR1       -31.1826   22.5855  -20.8685 Br          1 SX3      -0.0605
      2 C11       -29.9818   21.3782  -21.6209 C.ar        1 SX3       0.0047
      3 C10       -30.3572   20.0325  -21.8029 C.ar        1 SX3      -0.0437
      4 C12       -28.7056   21.8102  -22.0183 C.ar        1 SX3      -0.0597
      5 C13       -27.8132   20.9024  -22.6171 C.ar        1 SX3      -0.0356
      6 C14       -28.1882   19.5570  -22.8305 C.ar        1 SX3       0.0599
      7 N2        -27.3173   18.7486  -23.4673 N.pl3       1 SX3      -0.3308
      8 C9        -29.4675   19.1085  -22.4018 C.ar        1 SX3       0.0698
      9 C8        -29.8692   17.7886  -22.5421 C.2         1 SX3       0.1999
     10 O1        -30.4844   17.5727  -23.5795 O.2         1 SX3      -0.3919
     11 N1        -29.6545   16.8114  -21.6380 N.am        1 SX3      -0.2741
     12 C6        -28.9013   16.9972  -20.4049 C.3         1 SX3       0.0356
     13 C4        -27.6723   16.0380  -20.3138 C.3         1 SX3      -0.0232
     14 C5        -26.4460   16.5534  -21.1176 C.3         1 SX3      -0.0606
     15 C3        -28.0786   14.5707  -20.6677 C.3         1 SX3      -0.0442
     16 C7        -30.1868   15.4682  -21.8120 C.3         1 SX3       0.0356
     17 C2        -29.0478   14.4099  -21.8833 C.3         1 SX3      -0.0232
     18 C1        -28.3596   14.4049  -23.2764 C.3         1 SX3      -0.0606
     19 H1        -31.2875   19.7357  -21.5028 H           1 SX3       0.0663
     20 H2        -28.4288   22.7853  -21.8780 H           1 SX3       0.0644
     21 H3        -26.8877   21.2368  -22.9045 H           1 SX3       0.0535
     22 H4        -26.4490   19.0857  -23.7334 H           1 SX3       0.1755
     23 H5        -27.5648   17.8341  -23.6773 H           1 SX3       0.1755
     24 H6        -29.5701   16.7818  -19.5639 H           1 SX3       0.0524
     25 H7        -28.5565   18.0227  -20.2474 H           1 SX3       0.0524
     26 H8        -27.3453   16.0378  -19.2674 H           1 SX3       0.0318
     27 H9        -25.5812   15.9137  -20.9239 H           1 SX3       0.0233
     28 H10       -26.1872   17.5750  -20.8222 H           1 SX3       0.0233
     29 H11       -26.6444   16.5497  -22.1866 H           1 SX3       0.0233
     30 H12       -28.5851   14.1583  -19.7888 H           1 SX3       0.0272
     31 H13       -27.1840   13.9625  -20.8175 H           1 SX3       0.0272
     32 H14       -30.8210   15.3567  -22.6956 H           1 SX3       0.0524
     33 H15       -30.8329   15.2340  -20.9592 H           1 SX3       0.0524
     34 H16       -29.5107   13.4239  -21.7795 H           1 SX3       0.0318
     35 H17       -27.4875   13.7491  -23.2722 H           1 SX3       0.0233
     36 H18       -28.0512   15.4050  -23.5768 H           1 SX3       0.0233
     37 H19       -29.0572   14.0310  -24.0291 H           1 SX3       0.0233
@<TRIPOS>BOND
     1     1     2   1
     2     2     3  ar
     3     2     4  ar
     4     3     8  ar
     5     4     5  ar
     6     5     6  ar
     7     6     7   1
     8     6     8  ar
     9     8     9   1
    10     9    10   2
    11     9    11  am
    12    11    12   1
    13    11    16   1
    14    12    13   1
    15    13    14   1
    16    13    15   1
    17    15    17   1
    18    16    17   1
    19    17    18   1
    20     3    19   1
    21     4    20   1
    22     5    21   1
    23     7    22   1
    24     7    23   1
    25    12    24   1
    26    12    25   1
    27    13    26   1
    28    14    27   1
    29    14    28   1
    30    14    29   1
    31    15    30   1
    32    15    31   1
    33    16    32   1
    34    16    33   1
    35    17    34   1
    36    18    35   1
    37    18    36   1
    38    18    37   1
@<TRIPOS>SUBSTRUCTURE
     1  SX3      2

