@<TRIPOS>MOLECULE
3cj2_ligand_064
    37    38
SMALL
GAST_HUCK
****
This file was generated by PARSER (from files_GN.cpp)

@<TRIPOS>ATOM
      1 BR1       -21.9746    4.6488  -18.9198 Br          1 SX3      -0.0605
      2 C11       -21.5637    5.6271  -17.3940 C.ar        1 SX3       0.0047
      3 C10       -22.5176    5.7634  -16.3705 C.ar        1 SX3      -0.0437
      4 C12       -20.3089    6.2467  -17.2673 C.ar        1 SX3      -0.0597
      5 C13       -20.0080    6.9969  -16.1179 C.ar        1 SX3      -0.0356
      6 C14       -20.9698    7.1612  -15.0978 C.ar        1 SX3       0.0599
      7 N2        -20.6331    7.9254  -14.0399 N.pl3       1 SX3      -0.3308
      8 C9        -22.2476    6.5479  -15.2246 C.ar        1 SX3       0.0698
      9 C8        -23.2505    6.6886  -14.2679 C.2         1 SX3       0.1999
     10 O1        -23.5045    5.6565  -13.6549 O.2         1 SX3      -0.3919
     11 N1        -23.9980    7.7948  -14.0753 N.am        1 SX3      -0.2741
     12 C6        -25.0843    7.8348  -13.1072 C.3         1 SX3       0.0356
     13 C4        -26.4641    8.0792  -13.7892 C.3         1 SX3      -0.0232
     14 C5        -27.0443    6.7919  -14.4361 C.3         1 SX3      -0.0606
     15 C3        -26.3849    9.2965  -14.7645 C.3         1 SX3      -0.0442
     16 C7        -23.8396    9.0225  -14.8496 C.3         1 SX3       0.0356
     17 C2        -25.1194    9.3422  -15.6801 C.3         1 SX3      -0.0232
     18 C1        -25.2117    8.4614  -16.9600 C.3         1 SX3      -0.0606
     19 H1        -23.4276    5.3113  -16.4870 H           1 SX3       0.0663
     20 H2        -19.6147    6.1552  -18.0134 H           1 SX3       0.0644
     21 H3        -19.0877    7.4397  -16.0403 H           1 SX3       0.0535
     22 H4        -19.7541    8.3350  -13.9938 H           1 SX3       0.1755
     23 H5        -21.2733    8.0861  -13.3296 H           1 SX3       0.1755
     24 H6        -24.8846    8.6473  -12.4055 H           1 SX3       0.0524
     25 H7        -25.1559    6.9374  -12.4915 H           1 SX3       0.0524
     26 H8        -27.1671    8.3542  -12.9990 H           1 SX3       0.0318
     27 H9        -27.9745    7.0164  -14.9598 H           1 SX3       0.0233
     28 H10       -27.2625    6.0544  -13.6620 H           1 SX3       0.0233
     29 H11       -26.3457    6.3427  -15.1389 H           1 SX3       0.0233
     30 H12       -26.3661   10.2035  -14.1503 H           1 SX3       0.0272
     31 H13       -27.2923    9.3552  -15.3732 H           1 SX3       0.0272
     32 H14       -22.9906    9.0185  -15.5397 H           1 SX3       0.0524
     33 H15       -23.6582    9.8530  -14.1562 H           1 SX3       0.0524
     34 H16       -25.0292   10.3758  -16.0454 H           1 SX3       0.0318
     35 H17       -26.1650    8.6185  -17.4716 H           1 SX3       0.0233
     36 H18       -25.1075    7.4021  -16.7286 H           1 SX3       0.0233
     37 H19       -24.4096    8.7306  -17.6534 H           1 SX3       0.0233
@<TRIPOS>BOND
     1     1     2   1
     2     2     3  ar
     3     2     4  ar
     4     3     8  ar
     5     4     5  ar
     6     5     6  ar
     7     6     7   1
     8     6     8  ar
     9     8     9   1
    10     9    10   2
    11     9    11  am
    12    11    12   1
    13    11    16   1
    14    12    13   1
    15    13    14   1
    16    13    15   1
    17    15    17   1
    18    16    17   1
    19    17    18   1
    20     3    19   1
    21     4    20   1
    22     5    21   1
    23     7    22   1
    24     7    23   1
    25    12    24   1
    26    12    25   1
    27    13    26   1
    28    14    27   1
    29    14    28   1
    30    14    29   1
    31    15    30   1
    32    15    31   1
    33    16    32   1
    34    16    33   1
    35    17    34   1
    36    18    35   1
    37    18    36   1
    38    18    37   1
@<TRIPOS>SUBSTRUCTURE
     1  SX3      2

