@<TRIPOS>MOLECULE
3cj2_ligand_094
    37    38
SMALL
GAST_HUCK
****
This file was generated by PARSER (from files_GN.cpp)

@<TRIPOS>ATOM
      1 BR1       -27.4620    3.7773  -18.1728 Br          1 SX3      -0.0605
      2 C11       -27.4947    3.9384  -16.3152 C.ar        1 SX3       0.0047
      3 C10       -26.7712    4.9642  -15.6908 C.ar        1 SX3      -0.0437
      4 C12       -28.2506    3.0390  -15.5446 C.ar        1 SX3      -0.0597
      5 C13       -28.2803    3.1670  -14.1434 C.ar        1 SX3      -0.0356
      6 C14       -27.5501    4.1930  -13.5076 C.ar        1 SX3       0.0599
      7 N2        -27.5879    4.2623  -12.1621 N.pl3       1 SX3      -0.3308
      8 C9        -26.7894    5.1123  -14.2795 C.ar        1 SX3       0.0698
      9 C8        -26.0335    6.1204  -13.6892 C.2         1 SX3       0.1999
     10 O1        -25.1142    5.6941  -13.0015 O.2         1 SX3      -0.3919
     11 N1        -26.2774    7.4450  -13.7708 N.am        1 SX3      -0.2741
     12 C6        -27.4173    8.0192  -14.4781 C.3         1 SX3       0.0356
     13 C4        -26.9977    9.1176  -15.5042 C.3         1 SX3      -0.0232
     14 C5        -26.4916    8.5420  -16.8575 C.3         1 SX3      -0.0606
     15 C3        -26.0159   10.1371  -14.8493 C.3         1 SX3      -0.0442
     16 C7        -25.4796    8.4187  -13.0371 C.3         1 SX3       0.0356
     17 C2        -24.8815    9.5065  -13.9772 C.3         1 SX3      -0.0232
     18 C1        -23.6603    8.9764  -14.7765 C.3         1 SX3      -0.0606
     19 H1        -26.2152    5.5974  -16.2678 H           1 SX3       0.0663
     20 H2        -28.7788    2.2928  -15.9988 H           1 SX3       0.0644
     21 H3        -28.8302    2.5057  -13.5957 H           1 SX3       0.0535
     22 H4        -28.1116    3.6245  -11.6533 H           1 SX3       0.1755
     23 H5        -27.0698    4.9392  -11.6984 H           1 SX3       0.1755
     24 H6        -28.0718    8.4788  -13.7338 H           1 SX3       0.0524
     25 H7        -28.0375    7.2838  -14.9926 H           1 SX3       0.0524
     26 H8        -27.9074    9.6738  -15.7569 H           1 SX3       0.0318
     27 H9        -26.2210    9.3560  -17.5329 H           1 SX3       0.0233
     28 H10       -27.2856    7.9590  -17.3330 H           1 SX3       0.0233
     29 H11       -25.6277    7.8993  -16.7300 H           1 SX3       0.0233
     30 H12       -26.6087   10.7790  -14.1898 H           1 SX3       0.0272
     31 H13       -25.5833   10.7952  -15.6075 H           1 SX3       0.0272
     32 H14       -24.6606    7.9773  -12.4614 H           1 SX3       0.0524
     33 H15       -26.1265    8.9074  -12.2991 H           1 SX3       0.0524
     34 H16       -24.4951   10.3102  -13.3411 H           1 SX3       0.0318
     35 H17       -23.3216    9.7221  -15.4991 H           1 SX3       0.0233
     36 H18       -23.8914    8.0508  -15.3016 H           1 SX3       0.0233
     37 H19       -22.8353    8.7693  -14.0912 H           1 SX3       0.0233
@<TRIPOS>BOND
     1     1     2   1
     2     2     3  ar
     3     2     4  ar
     4     3     8  ar
     5     4     5  ar
     6     5     6  ar
     7     6     7   1
     8     6     8  ar
     9     8     9   1
    10     9    10   2
    11     9    11  am
    12    11    12   1
    13    11    16   1
    14    12    13   1
    15    13    14   1
    16    13    15   1
    17    15    17   1
    18    16    17   1
    19    17    18   1
    20     3    19   1
    21     4    20   1
    22     5    21   1
    23     7    22   1
    24     7    23   1
    25    12    24   1
    26    12    25   1
    27    13    26   1
    28    14    27   1
    29    14    28   1
    30    14    29   1
    31    15    30   1
    32    15    31   1
    33    16    32   1
    34    16    33   1
    35    17    34   1
    36    18    35   1
    37    18    36   1
    38    18    37   1
@<TRIPOS>SUBSTRUCTURE
     1  SX3      2

