@<TRIPOS>MOLECULE
3cj2_ligand_014
    37    38
SMALL
GAST_HUCK
****
This file was generated by PARSER (from files_GN.cpp)

@<TRIPOS>ATOM
      1 BR1       -24.1626    7.5791  -22.9855 Br          1 SX3      -0.0605
      2 C11       -24.6887    7.8554  -21.2248 C.ar        1 SX3       0.0047
      3 C10       -24.1659    7.0525  -20.1931 C.ar        1 SX3      -0.0437
      4 C12       -25.5800    8.8998  -20.9115 C.ar        1 SX3      -0.0597
      5 C13       -25.9486    9.1366  -19.5783 C.ar        1 SX3      -0.0356
      6 C14       -25.4273    8.3372  -18.5402 C.ar        1 SX3       0.0599
      7 N2        -25.8114    8.6165  -17.2779 N.pl3       1 SX3      -0.3308
      8 C9        -24.5134    7.2900  -18.8443 C.ar        1 SX3       0.0698
      9 C8        -23.9537    6.5040  -17.8392 C.2         1 SX3       0.1999
     10 O1        -24.7620    5.7613  -17.2959 O.2         1 SX3      -0.3919
     11 N1        -22.6738    6.5794  -17.4207 N.am        1 SX3      -0.2741
     12 C6        -22.1944    5.7864  -16.2968 C.3         1 SX3       0.0356
     13 C4        -21.6973    6.6783  -15.1168 C.3         1 SX3      -0.0232
     14 C5        -22.8769    7.2133  -14.2559 C.3         1 SX3      -0.0606
     15 C3        -20.7279    7.7889  -15.6343 C.3         1 SX3      -0.0442
     16 C7        -21.6708    7.4681  -17.9868 C.3         1 SX3       0.0356
     17 C2        -21.1795    8.5127  -16.9415 C.3         1 SX3      -0.0232
     18 C1        -22.2021    9.6621  -16.7218 C.3         1 SX3      -0.0606
     19 H1        -23.5117    6.3012  -20.4367 H           1 SX3       0.0663
     20 H2        -25.9502    9.4949  -21.6566 H           1 SX3       0.0644
     21 H3        -26.5940    9.9021  -19.3665 H           1 SX3       0.0535
     22 H4        -26.4294    9.3437  -17.1053 H           1 SX3       0.1755
     23 H5        -25.4737    8.0919  -16.5345 H           1 SX3       0.1755
     24 H6        -21.3597    5.1680  -16.6444 H           1 SX3       0.0524
     25 H7        -22.9403    5.0860  -15.9043 H           1 SX3       0.0524
     26 H8        -21.1145    6.0331  -14.4481 H           1 SX3       0.0318
     27 H9        -22.5045    7.8800  -13.4756 H           1 SX3       0.0233
     28 H10       -23.3912    6.3782  -13.7701 H           1 SX3       0.0233
     29 H11       -23.6089    7.7515  -14.8596 H           1 SX3       0.0233
     30 H12       -19.7672    7.3041  -15.8428 H           1 SX3       0.0272
     31 H13       -20.5402    8.5199  -14.8430 H           1 SX3       0.0272
     32 H14       -22.0066    8.0042  -18.8696 H           1 SX3       0.0524
     33 H15       -20.8165    6.8652  -18.3186 H           1 SX3       0.0524
     34 H16       -20.2865    8.9895  -17.3579 H           1 SX3       0.0318
     35 H17       -21.8818   10.3096  -15.9043 H           1 SX3       0.0233
     36 H18       -23.1902    9.2740  -16.4970 H           1 SX3       0.0233
     37 H19       -22.2758   10.2708  -17.6240 H           1 SX3       0.0233
@<TRIPOS>BOND
     1     1     2   1
     2     2     3  ar
     3     2     4  ar
     4     3     8  ar
     5     4     5  ar
     6     5     6  ar
     7     6     7   1
     8     6     8  ar
     9     8     9   1
    10     9    10   2
    11     9    11  am
    12    11    12   1
    13    11    16   1
    14    12    13   1
    15    13    14   1
    16    13    15   1
    17    15    17   1
    18    16    17   1
    19    17    18   1
    20     3    19   1
    21     4    20   1
    22     5    21   1
    23     7    22   1
    24     7    23   1
    25    12    24   1
    26    12    25   1
    27    13    26   1
    28    14    27   1
    29    14    28   1
    30    14    29   1
    31    15    30   1
    32    15    31   1
    33    16    32   1
    34    16    33   1
    35    17    34   1
    36    18    35   1
    37    18    36   1
    38    18    37   1
@<TRIPOS>SUBSTRUCTURE
     1  SX3      2

