@<TRIPOS>MOLECULE
3cj2_ligand_068
    37    38
SMALL
GAST_HUCK
****
This file was generated by PARSER (from files_GN.cpp)

@<TRIPOS>ATOM
      1 BR1       -29.7573   10.9232  -22.9412 Br          1 SX3      -0.0605
      2 C11       -28.8896   12.0993  -21.7911 C.ar        1 SX3       0.0047
      3 C10       -28.9127   13.4797  -22.0521 C.ar        1 SX3      -0.0437
      4 C12       -28.2052   11.6127  -20.6634 C.ar        1 SX3      -0.0597
      5 C13       -27.5485   12.5046  -19.7995 C.ar        1 SX3      -0.0356
      6 C14       -27.5662   13.8942  -20.0513 C.ar        1 SX3       0.0599
      7 N2        -26.9263   14.7022  -19.1805 N.pl3       1 SX3      -0.3308
      8 C9        -28.2543   14.3908  -21.1915 C.ar        1 SX3       0.0698
      9 C8        -28.2830   15.7419  -21.5098 C.2         1 SX3       0.1999
     10 O1        -27.1885   16.1853  -21.8383 O.2         1 SX3      -0.3919
     11 N1        -29.3907   16.5100  -21.5338 N.am        1 SX3      -0.2741
     12 C6        -30.6922   16.0648  -21.0455 C.3         1 SX3       0.0356
     13 C4        -31.1900   16.9805  -19.8879 C.3         1 SX3      -0.0232
     14 C5        -32.5860   16.5550  -19.3625 C.3         1 SX3      -0.0606
     15 C3        -31.1818   18.4722  -20.3337 C.3         1 SX3      -0.0442
     16 C7        -29.3619   17.8842  -22.0197 C.3         1 SX3       0.0356
     17 C2        -29.7953   18.8846  -20.9063 C.3         1 SX3      -0.0232
     18 C1        -29.8072   20.3485  -21.4200 C.3         1 SX3      -0.0606
     19 H1        -29.4061   13.8162  -22.8848 H           1 SX3       0.0663
     20 H2        -28.1835   10.6087  -20.4737 H           1 SX3       0.0644
     21 H3        -27.0507   12.1333  -18.9849 H           1 SX3       0.0535
     22 H4        -26.4699   14.3234  -18.4139 H           1 SX3       0.1755
     23 H5        -26.9155   15.6657  -19.3111 H           1 SX3       0.1755
     24 H6        -30.6851   15.0391  -20.6706 H           1 SX3       0.0524
     25 H7        -31.4091   16.0886  -21.8709 H           1 SX3       0.0524
     26 H8        -30.4837   16.8717  -19.0578 H           1 SX3       0.0318
     27 H9        -32.8916   17.2027  -18.5380 H           1 SX3       0.0233
     28 H10       -32.5543   15.5277  -18.9952 H           1 SX3       0.0233
     29 H11       -33.3339   16.6219  -20.1551 H           1 SX3       0.0233
     30 H12       -31.4225   19.1085  -19.4770 H           1 SX3       0.0272
     31 H13       -31.9514   18.6285  -21.0949 H           1 SX3       0.0272
     32 H14       -30.0474   17.9660  -22.8694 H           1 SX3       0.0524
     33 H15       -28.3799   18.1906  -22.3888 H           1 SX3       0.0524
     34 H16       -29.0606   18.8270  -20.0949 H           1 SX3       0.0318
     35 H17       -30.0965   21.0293  -20.6171 H           1 SX3       0.0233
     36 H18       -30.5134   20.4608  -22.2465 H           1 SX3       0.0233
     37 H19       -28.8132   20.6344  -21.7696 H           1 SX3       0.0233
@<TRIPOS>BOND
     1     1     2   1
     2     2     3  ar
     3     2     4  ar
     4     3     8  ar
     5     4     5  ar
     6     5     6  ar
     7     6     7   1
     8     6     8  ar
     9     8     9   1
    10     9    10   2
    11     9    11  am
    12    11    12   1
    13    11    16   1
    14    12    13   1
    15    13    14   1
    16    13    15   1
    17    15    17   1
    18    16    17   1
    19    17    18   1
    20     3    19   1
    21     4    20   1
    22     5    21   1
    23     7    22   1
    24     7    23   1
    25    12    24   1
    26    12    25   1
    27    13    26   1
    28    14    27   1
    29    14    28   1
    30    14    29   1
    31    15    30   1
    32    15    31   1
    33    16    32   1
    34    16    33   1
    35    17    34   1
    36    18    35   1
    37    18    36   1
    38    18    37   1
@<TRIPOS>SUBSTRUCTURE
     1  SX3      2

