@<TRIPOS>MOLECULE
3cj2_ligand_044
    37    38
SMALL
GAST_HUCK
****
This file was generated by PARSER (from files_GN.cpp)

@<TRIPOS>ATOM
      1 BR1       -28.1722   21.1491  -26.5800 Br          1 SX3      -0.0605
      2 C11       -27.8369   20.5928  -24.8360 C.ar        1 SX3       0.0047
      3 C10       -27.9187   19.2259  -24.5006 C.ar        1 SX3      -0.0437
      4 C12       -27.4961   21.5358  -23.8522 C.ar        1 SX3      -0.0597
      5 C13       -27.2290   21.1164  -22.5372 C.ar        1 SX3      -0.0356
      6 C14       -27.2948   19.7500  -22.1976 C.ar        1 SX3       0.0599
      7 N2        -27.0247   19.4081  -20.9222 N.pl3       1 SX3      -0.3308
      8 C9        -27.6500   18.7880  -23.1841 C.ar        1 SX3       0.0698
      9 C8        -27.7338   17.4302  -22.8995 C.2         1 SX3       0.1999
     10 O1        -26.6472   16.8704  -22.8173 O.2         1 SX3      -0.3919
     11 N1        -28.8832   16.7512  -22.7233 N.am        1 SX3      -0.2741
     12 C6        -30.1875   17.3802  -22.5983 C.3         1 SX3       0.0356
     13 C4        -30.8096   17.1170  -21.1884 C.3         1 SX3      -0.0232
     14 C5        -30.2009   18.0385  -20.0970 C.3         1 SX3      -0.0606
     15 C3        -30.7559   15.5959  -20.8305 C.3         1 SX3      -0.0442
     16 C7        -28.9099   15.2986  -22.5873 C.3         1 SX3       0.0356
     17 C2        -29.4173   14.8634  -21.1818 C.3         1 SX3      -0.0232
     18 C1        -28.3038   14.9894  -20.1053 C.3         1 SX3      -0.0606
     19 H1        -28.1708   18.5544  -25.2316 H           1 SX3       0.0663
     20 H2        -27.4426   22.5281  -24.0911 H           1 SX3       0.0644
     21 H3        -26.9870   21.8155  -21.8317 H           1 SX3       0.0535
     22 H4        -26.8027   20.0961  -20.2750 H           1 SX3       0.1755
     23 H5        -27.0424   18.4768  -20.6477 H           1 SX3       0.1755
     24 H6        -30.8518   16.9646  -23.3629 H           1 SX3       0.0524
     25 H7        -30.1752   18.4601  -22.7714 H           1 SX3       0.0524
     26 H8        -31.8683   17.3938  -21.2478 H           1 SX3       0.0318
     27 H9        -30.6593   17.8326  -19.1308 H           1 SX3       0.0233
     28 H10       -30.3825   19.0856  -20.3449 H           1 SX3       0.0233
     29 H11       -29.1269   17.8916  -20.0052 H           1 SX3       0.0233
     30 H12       -31.5502   15.1045  -21.3995 H           1 SX3       0.0272
     31 H13       -30.9928   15.4493  -19.7721 H           1 SX3       0.0272
     32 H14       -27.9439   14.8261  -22.7832 H           1 SX3       0.0524
     33 H15       -29.5861   14.8914  -23.3444 H           1 SX3       0.0524
     34 H16       -29.6515   13.7939  -21.2355 H           1 SX3       0.0318
     35 H17       -28.6984   14.7530  -19.1156 H           1 SX3       0.0233
     36 H18       -27.8767   15.9909  -20.0852 H           1 SX3       0.0233
     37 H19       -27.4979   14.2849  -20.3253 H           1 SX3       0.0233
@<TRIPOS>BOND
     1     1     2   1
     2     2     3  ar
     3     2     4  ar
     4     3     8  ar
     5     4     5  ar
     6     5     6  ar
     7     6     7   1
     8     6     8  ar
     9     8     9   1
    10     9    10   2
    11     9    11  am
    12    11    12   1
    13    11    16   1
    14    12    13   1
    15    13    14   1
    16    13    15   1
    17    15    17   1
    18    16    17   1
    19    17    18   1
    20     3    19   1
    21     4    20   1
    22     5    21   1
    23     7    22   1
    24     7    23   1
    25    12    24   1
    26    12    25   1
    27    13    26   1
    28    14    27   1
    29    14    28   1
    30    14    29   1
    31    15    30   1
    32    15    31   1
    33    16    32   1
    34    16    33   1
    35    17    34   1
    36    18    35   1
    37    18    36   1
    38    18    37   1
@<TRIPOS>SUBSTRUCTURE
     1  SX3      2

