@<TRIPOS>MOLECULE
3cj2_ligand_054
    37    38
SMALL
GAST_HUCK
****
This file was generated by PARSER (from files_GN.cpp)

@<TRIPOS>ATOM
      1 BR1       -24.2008    0.7300  -21.5044 Br          1 SX3      -0.0605
      2 C11       -24.1532    2.5900  -21.5428 C.ar        1 SX3       0.0047
      3 C10       -23.7119    3.2973  -20.4123 C.ar        1 SX3      -0.0437
      4 C12       -24.5248    3.2872  -22.7030 C.ar        1 SX3      -0.0597
      5 C13       -24.4588    4.6910  -22.7272 C.ar        1 SX3      -0.0356
      6 C14       -23.9884    5.4103  -21.6058 C.ar        1 SX3       0.0599
      7 N2        -23.9228    6.7517  -21.7107 N.pl3       1 SX3      -0.3308
      8 C9        -23.5858    4.7123  -20.4288 C.ar        1 SX3       0.0698
      9 C8        -23.1018    5.3748  -19.2940 C.2         1 SX3       0.1999
     10 O1        -23.8345    6.2809  -18.9046 O.2         1 SX3      -0.3919
     11 N1        -21.9743    5.0859  -18.6094 N.am        1 SX3      -0.2741
     12 C6        -20.9844    4.1050  -19.0451 C.3         1 SX3       0.0356
     13 C4        -19.5856    4.7512  -19.2327 C.3         1 SX3      -0.0232
     14 C5        -18.5354    3.6965  -19.6747 C.3         1 SX3      -0.0606
     15 C3        -19.1645    5.4829  -17.9298 C.3         1 SX3      -0.0442
     16 C7        -21.6392    5.7640  -17.3580 C.3         1 SX3       0.0356
     17 C2        -20.2633    6.4829  -17.4589 C.3         1 SX3      -0.0232
     18 C1        -19.8753    7.1646  -16.1202 C.3         1 SX3      -0.0606
     19 H1        -23.4679    2.7651  -19.5749 H           1 SX3       0.0663
     20 H2        -24.8502    2.7754  -23.5265 H           1 SX3       0.0644
     21 H3        -24.7470    5.1868  -23.5755 H           1 SX3       0.0535
     22 H4        -24.2122    7.1924  -22.5273 H           1 SX3       0.1755
     23 H5        -23.6037    7.2895  -20.9694 H           1 SX3       0.1755
     24 H6        -21.2165    3.6388  -20.0012 H           1 SX3       0.0524
     25 H7        -20.9332    3.3056  -18.2961 H           1 SX3       0.0524
     26 H8        -19.6676    5.4912  -20.0352 H           1 SX3       0.0318
     27 H9        -17.5623    4.1685  -19.8211 H           1 SX3       0.0233
     28 H10       -18.8367    3.2362  -20.6186 H           1 SX3       0.0233
     29 H11       -18.4348    2.9108  -18.9225 H           1 SX3       0.0233
     30 H12       -18.2324    6.0230  -18.1134 H           1 SX3       0.0272
     31 H13       -18.9795    4.7423  -17.1462 H           1 SX3       0.0272
     32 H14       -21.6048    5.0231  -16.5567 H           1 SX3       0.0524
     33 H15       -22.3804    6.5078  -17.0485 H           1 SX3       0.0524
     34 H16       -20.3554    7.2686  -18.2180 H           1 SX3       0.0318
     35 H17       -18.9072    7.6592  -16.2115 H           1 SX3       0.0233
     36 H18       -19.8147    6.4312  -15.3156 H           1 SX3       0.0233
     37 H19       -20.6209    7.9159  -15.8516 H           1 SX3       0.0233
@<TRIPOS>BOND
     1     1     2   1
     2     2     3  ar
     3     2     4  ar
     4     3     8  ar
     5     4     5  ar
     6     5     6  ar
     7     6     7   1
     8     6     8  ar
     9     8     9   1
    10     9    10   2
    11     9    11  am
    12    11    12   1
    13    11    16   1
    14    12    13   1
    15    13    14   1
    16    13    15   1
    17    15    17   1
    18    16    17   1
    19    17    18   1
    20     3    19   1
    21     4    20   1
    22     5    21   1
    23     7    22   1
    24     7    23   1
    25    12    24   1
    26    12    25   1
    27    13    26   1
    28    14    27   1
    29    14    28   1
    30    14    29   1
    31    15    30   1
    32    15    31   1
    33    16    32   1
    34    16    33   1
    35    17    34   1
    36    18    35   1
    37    18    36   1
    38    18    37   1
@<TRIPOS>SUBSTRUCTURE
     1  SX3      2

