@<TRIPOS>MOLECULE
3cj2_ligand_059
    37    38
SMALL
GAST_HUCK
****
This file was generated by PARSER (from files_GN.cpp)

@<TRIPOS>ATOM
      1 BR1       -25.0991    0.0446  -19.5171 Br          1 SX3      -0.0605
      2 C11       -23.9530    1.5066  -19.3929 C.ar        1 SX3       0.0047
      3 C10       -24.3220    2.6205  -18.6217 C.ar        1 SX3      -0.0437
      4 C12       -22.7355    1.5132  -20.0878 C.ar        1 SX3      -0.0597
      5 C13       -21.8736    2.6176  -19.9897 C.ar        1 SX3      -0.0356
      6 C14       -22.2211    3.7281  -19.1938 C.ar        1 SX3       0.0599
      7 N2        -21.3373    4.7506  -19.1275 N.pl3       1 SX3      -0.3308
      8 C9        -23.4774    3.7630  -18.5259 C.ar        1 SX3       0.0698
      9 C8        -23.9251    4.8595  -17.7847 C.2         1 SX3       0.1999
     10 O1        -24.2397    4.5931  -16.6313 O.2         1 SX3      -0.3919
     11 N1        -24.1083    6.1120  -18.2617 N.am        1 SX3      -0.2741
     12 C6        -24.6408    7.1816  -17.4230 C.3         1 SX3       0.0356
     13 C4        -25.9984    7.7199  -17.9661 C.3         1 SX3      -0.0232
     14 C5        -27.1926    6.7930  -17.6065 C.3         1 SX3      -0.0606
     15 C3        -25.8945    8.0504  -19.4861 C.3         1 SX3      -0.0442
     16 C7        -23.8603    6.5204  -19.6411 C.3         1 SX3       0.0356
     17 C2        -25.1553    6.9849  -20.3544 C.3         1 SX3      -0.0232
     18 C1        -26.0249    5.7674  -20.7832 C.3         1 SX3      -0.0606
     19 H1        -25.2273    2.6028  -18.1439 H           1 SX3       0.0663
     20 H2        -22.4713    0.7080  -20.6660 H           1 SX3       0.0644
     21 H3        -20.9903    2.6073  -20.5089 H           1 SX3       0.0535
     22 H4        -20.5254    4.7267  -19.6600 H           1 SX3       0.1755
     23 H5        -21.5626    5.5496  -18.6398 H           1 SX3       0.1755
     24 H6        -23.9129    7.9987  -17.4081 H           1 SX3       0.0524
     25 H7        -24.7744    6.8994  -16.3742 H           1 SX3       0.0524
     26 H8        -26.1969    8.6680  -17.4547 H           1 SX3       0.0318
     27 H9        -28.1111    7.1645  -18.0586 H           1 SX3       0.0233
     28 H10       -27.3313    6.7699  -16.5269 H           1 SX3       0.0233
     29 H11       -27.0232    5.7728  -17.9446 H           1 SX3       0.0233
     30 H12       -25.3290    8.9836  -19.5857 H           1 SX3       0.0272
     31 H13       -26.8866    8.2395  -19.9081 H           1 SX3       0.0272
     32 H14       -23.4456    5.7531  -20.2889 H           1 SX3       0.0524
     33 H15       -23.1301    7.3375  -19.6345 H           1 SX3       0.0524
     34 H16       -24.8521    7.4757  -21.2848 H           1 SX3       0.0318
     35 H17       -26.9862    6.1016  -21.1820 H           1 SX3       0.0233
     36 H18       -26.2048    5.0815  -19.9550 H           1 SX3       0.0233
     37 H19       -25.5139    5.2017  -21.5705 H           1 SX3       0.0233
@<TRIPOS>BOND
     1     1     2   1
     2     2     3  ar
     3     2     4  ar
     4     3     8  ar
     5     4     5  ar
     6     5     6  ar
     7     6     7   1
     8     6     8  ar
     9     8     9   1
    10     9    10   2
    11     9    11  am
    12    11    12   1
    13    11    16   1
    14    12    13   1
    15    13    14   1
    16    13    15   1
    17    15    17   1
    18    16    17   1
    19    17    18   1
    20     3    19   1
    21     4    20   1
    22     5    21   1
    23     7    22   1
    24     7    23   1
    25    12    24   1
    26    12    25   1
    27    13    26   1
    28    14    27   1
    29    14    28   1
    30    14    29   1
    31    15    30   1
    32    15    31   1
    33    16    32   1
    34    16    33   1
    35    17    34   1
    36    18    35   1
    37    18    36   1
    38    18    37   1
@<TRIPOS>SUBSTRUCTURE
     1  SX3      2

