@<TRIPOS>MOLECULE
3cj2_ligand_033
    37    38
SMALL
GAST_HUCK
****
This file was generated by PARSER (from files_GN.cpp)

@<TRIPOS>ATOM
      1 BR1       -23.6073    0.9899  -19.6696 Br          1 SX3      -0.0605
      2 C11       -23.3940    2.8373  -19.6165 C.ar        1 SX3       0.0047
      3 C10       -24.5111    3.6773  -19.7817 C.ar        1 SX3      -0.0437
      4 C12       -22.1187    3.3959  -19.4335 C.ar        1 SX3      -0.0597
      5 C13       -21.9570    4.7924  -19.4235 C.ar        1 SX3      -0.0356
      6 C14       -23.0701    5.6422  -19.5904 C.ar        1 SX3       0.0599
      7 N2        -22.8689    6.9746  -19.5781 N.pl3       1 SX3      -0.3308
      8 C9        -24.3645    5.0861  -19.7758 C.ar        1 SX3       0.0698
      9 C8        -25.4886    5.8851  -19.9447 C.2         1 SX3       0.1999
     10 O1        -26.2260    5.9004  -18.9660 O.2         1 SX3      -0.3919
     11 N1        -25.7724    6.6144  -21.0456 N.am        1 SX3      -0.2741
     12 C6        -26.9141    7.5227  -21.0963 C.3         1 SX3       0.0356
     13 C4        -26.4493    8.9710  -21.4367 C.3         1 SX3      -0.0232
     14 C5        -27.6416    9.9614  -21.5182 C.3         1 SX3      -0.0606
     15 C3        -25.6239    8.9702  -22.7571 C.3         1 SX3      -0.0442
     16 C7        -25.0071    6.5308  -22.2859 C.3         1 SX3       0.0356
     17 C2        -24.4694    7.9278  -22.7141 C.3         1 SX3      -0.0232
     18 C1        -23.7138    7.8649  -24.0672 C.3         1 SX3      -0.0606
     19 H1        -25.4343    3.2535  -19.9208 H           1 SX3       0.0663
     20 H2        -21.3067    2.7879  -19.3139 H           1 SX3       0.0644
     21 H3        -21.0185    5.1865  -19.2939 H           1 SX3       0.0535
     22 H4        -21.9713    7.3426  -19.5028 H           1 SX3       0.1755
     23 H5        -23.6236    7.5740  -19.6742 H           1 SX3       0.1755
     24 H6        -27.4736    7.5636  -20.1567 H           1 SX3       0.0524
     25 H7        -27.6135    7.1704  -21.8624 H           1 SX3       0.0524
     26 H8        -25.7953    9.3140  -20.6258 H           1 SX3       0.0318
     27 H9        -27.2777   10.9718  -21.7192 H           1 SX3       0.0233
     28 H10       -28.1887    9.9772  -20.5728 H           1 SX3       0.0233
     29 H11       -28.3300    9.6715  -22.3154 H           1 SX3       0.0233
     30 H12       -25.2059    9.9686  -22.9194 H           1 SX3       0.0272
     31 H13       -26.2883    8.7428  -23.5967 H           1 SX3       0.0272
     32 H14       -25.6620    6.1397  -23.0703 H           1 SX3       0.0524
     33 H15       -24.1607    5.8430  -22.2253 H           1 SX3       0.0524
     34 H16       -23.7502    8.2573  -21.9581 H           1 SX3       0.0318
     35 H17       -23.3309    8.8516  -24.3341 H           1 SX3       0.0233
     36 H18       -24.3785    7.5198  -24.8618 H           1 SX3       0.0233
     37 H19       -22.8680    7.1794  -23.9976 H           1 SX3       0.0233
@<TRIPOS>BOND
     1     1     2   1
     2     2     3  ar
     3     2     4  ar
     4     3     8  ar
     5     4     5  ar
     6     5     6  ar
     7     6     7   1
     8     6     8  ar
     9     8     9   1
    10     9    10   2
    11     9    11  am
    12    11    12   1
    13    11    16   1
    14    12    13   1
    15    13    14   1
    16    13    15   1
    17    15    17   1
    18    16    17   1
    19    17    18   1
    20     3    19   1
    21     4    20   1
    22     5    21   1
    23     7    22   1
    24     7    23   1
    25    12    24   1
    26    12    25   1
    27    13    26   1
    28    14    27   1
    29    14    28   1
    30    14    29   1
    31    15    30   1
    32    15    31   1
    33    16    32   1
    34    16    33   1
    35    17    34   1
    36    18    35   1
    37    18    36   1
    38    18    37   1
@<TRIPOS>SUBSTRUCTURE
     1  SX3      2

