@<TRIPOS>MOLECULE
3cj2_ligand_026
    37    38
SMALL
GAST_HUCK
****
This file was generated by PARSER (from files_GN.cpp)

@<TRIPOS>ATOM
      1 BR1       -20.1034    7.4666  -15.3419 Br          1 SX3      -0.0605
      2 C11       -21.8855    7.9182  -15.0611 C.ar        1 SX3       0.0047
      3 C10       -22.8170    6.9219  -14.7174 C.ar        1 SX3      -0.0437
      4 C12       -22.3059    9.2520  -15.2029 C.ar        1 SX3      -0.0597
      5 C13       -23.6538    9.5910  -14.9957 C.ar        1 SX3      -0.0356
      6 C14       -24.5935    8.6010  -14.6432 C.ar        1 SX3       0.0599
      7 N2        -25.8737    8.9813  -14.4456 N.pl3       1 SX3      -0.3308
      8 C9        -24.1824    7.2455  -14.5201 C.ar        1 SX3       0.0698
      9 C8        -25.0851    6.2297  -14.2143 C.2         1 SX3       0.1999
     10 O1        -24.8549    5.6714  -13.1469 O.2         1 SX3      -0.3919
     11 N1        -26.1399    5.8679  -14.9743 N.am        1 SX3      -0.2741
     12 C6        -26.3961    6.4019  -16.3087 C.3         1 SX3       0.0356
     13 C4        -26.4239    5.2728  -17.3781 C.3         1 SX3      -0.0232
     14 C5        -26.7292    5.8316  -18.7936 C.3         1 SX3      -0.0606
     15 C3        -27.4420    4.1742  -16.9617 C.3         1 SX3      -0.0442
     16 C7        -27.1040    4.8711  -14.5267 C.3         1 SX3       0.0356
     17 C2        -27.1724    3.6672  -15.5141 C.3         1 SX3      -0.0232
     18 C1        -28.2303    2.6248  -15.0683 C.3         1 SX3      -0.0606
     19 H1        -22.4983    5.9528  -14.6373 H           1 SX3       0.0663
     20 H2        -21.6322    9.9755  -15.4599 H           1 SX3       0.0644
     21 H3        -23.9462   10.5643  -15.1060 H           1 SX3       0.0535
     22 H4        -26.1314    9.9091  -14.5570 H           1 SX3       0.1755
     23 H5        -26.5481    8.3236  -14.2145 H           1 SX3       0.1755
     24 H6        -25.6511    7.1266  -16.6393 H           1 SX3       0.0524
     25 H7        -27.3589    6.9235  -16.2989 H           1 SX3       0.0524
     26 H8        -25.4263    4.8214  -17.4112 H           1 SX3       0.0318
     27 H9        -26.7233    5.0230  -19.5278 H           1 SX3       0.0233
     28 H10       -25.9706    6.5612  -19.0852 H           1 SX3       0.0233
     29 H11       -27.7069    6.3177  -18.8158 H           1 SX3       0.0233
     30 H12       -27.3698    3.3337  -17.6584 H           1 SX3       0.0272
     31 H13       -28.4568    4.5777  -17.0220 H           1 SX3       0.0272
     32 H14       -28.0878    5.3483  -14.4625 H           1 SX3       0.0524
     33 H15       -26.8915    4.4808  -13.5281 H           1 SX3       0.0524
     34 H16       -26.1994    3.1672  -15.5085 H           1 SX3       0.0318
     35 H17       -28.2475    1.7844  -15.7636 H           1 SX3       0.0233
     36 H18       -29.2249    3.0755  -15.0362 H           1 SX3       0.0233
     37 H19       -27.9876    2.2429  -14.0749 H           1 SX3       0.0233
@<TRIPOS>BOND
     1     1     2   1
     2     2     3  ar
     3     2     4  ar
     4     3     8  ar
     5     4     5  ar
     6     5     6  ar
     7     6     7   1
     8     6     8  ar
     9     8     9   1
    10     9    10   2
    11     9    11  am
    12    11    12   1
    13    11    16   1
    14    12    13   1
    15    13    14   1
    16    13    15   1
    17    15    17   1
    18    16    17   1
    19    17    18   1
    20     3    19   1
    21     4    20   1
    22     5    21   1
    23     7    22   1
    24     7    23   1
    25    12    24   1
    26    12    25   1
    27    13    26   1
    28    14    27   1
    29    14    28   1
    30    14    29   1
    31    15    30   1
    32    15    31   1
    33    16    32   1
    34    16    33   1
    35    17    34   1
    36    18    35   1
    37    18    36   1
    38    18    37   1
@<TRIPOS>SUBSTRUCTURE
     1  SX3      2

