@<TRIPOS>MOLECULE
3cj2_ligand_072
    37    38
SMALL
GAST_HUCK
****
This file was generated by PARSER (from files_GN.cpp)

@<TRIPOS>ATOM
      1 BR1       -27.5130   13.4378  -15.1493 Br          1 SX3      -0.0605
      2 C11       -28.1348   13.3583  -13.3969 C.ar        1 SX3       0.0047
      3 C10       -28.4574   14.5432  -12.7036 C.ar        1 SX3      -0.0437
      4 C12       -28.3086   12.1147  -12.7695 C.ar        1 SX3      -0.0597
      5 C13       -28.7869   12.0549  -11.4518 C.ar        1 SX3      -0.0356
      6 C14       -29.1156   13.2358  -10.7522 C.ar        1 SX3       0.0599
      7 N2        -29.5325   13.1067   -9.4775 N.pl3       1 SX3      -0.3308
      8 C9        -28.9764   14.5043  -11.3847 C.ar        1 SX3       0.0698
      9 C8        -29.2802   15.7118  -10.7553 C.2         1 SX3       0.1999
     10 O1        -28.3061   16.4442  -10.6123 O.2         1 SX3      -0.3919
     11 N1        -30.5050   16.1352  -10.3680 N.am        1 SX3      -0.2741
     12 C6        -31.7253   15.3576  -10.5383 C.3         1 SX3       0.0356
     13 C4        -32.4301   15.1262   -9.1658 C.3         1 SX3      -0.0232
     14 C5        -33.7275   14.2884   -9.3099 C.3         1 SX3      -0.0606
     15 C3        -32.6968   16.4947   -8.4674 C.3         1 SX3      -0.0442
     16 C7        -30.7250   17.4550   -9.7838 C.3         1 SX3       0.0356
     17 C2        -31.4004   17.3526   -8.3802 C.3         1 SX3      -0.0232
     18 C1        -31.6778   18.7598   -7.7871 C.3         1 SX3      -0.0606
     19 H1        -28.3210   15.4348  -13.1807 H           1 SX3       0.0663
     20 H2        -28.0889   11.2527  -13.2731 H           1 SX3       0.0644
     21 H3        -28.8899   11.1388  -11.0002 H           1 SX3       0.0535
     22 H4        -29.6126   12.2256   -9.0749 H           1 SX3       0.1755
     23 H5        -29.7382   13.8927   -8.9551 H           1 SX3       0.1755
     24 H6        -31.5554   14.3920  -11.0135 H           1 SX3       0.0524
     25 H7        -32.4020   15.9056  -11.2043 H           1 SX3       0.0524
     26 H8        -31.7473   14.5548   -8.5316 H           1 SX3       0.0318
     27 H9        -34.1869   14.1313   -8.3311 H           1 SX3       0.0233
     28 H10       -33.4992   13.3097   -9.7385 H           1 SX3       0.0233
     29 H11       -34.4482   14.7936   -9.9560 H           1 SX3       0.0233
     30 H12       -33.0808   16.3172   -7.4574 H           1 SX3       0.0272
     31 H13       -33.4632   17.0434   -9.0252 H           1 SX3       0.0272
     32 H14       -31.3778   18.0255  -10.4550 H           1 SX3       0.0524
     33 H15       -29.8072   18.0425   -9.6846 H           1 SX3       0.0524
     34 H16       -30.7009   16.8453   -7.7077 H           1 SX3       0.0318
     35 H17       -32.1307   18.6686   -6.7995 H           1 SX3       0.0233
     36 H18       -32.3555   19.3274   -8.4304 H           1 SX3       0.0233
     37 H19       -30.7447   19.3179   -7.6853 H           1 SX3       0.0233
@<TRIPOS>BOND
     1     1     2   1
     2     2     3  ar
     3     2     4  ar
     4     3     8  ar
     5     4     5  ar
     6     5     6  ar
     7     6     7   1
     8     6     8  ar
     9     8     9   1
    10     9    10   2
    11     9    11  am
    12    11    12   1
    13    11    16   1
    14    12    13   1
    15    13    14   1
    16    13    15   1
    17    15    17   1
    18    16    17   1
    19    17    18   1
    20     3    19   1
    21     4    20   1
    22     5    21   1
    23     7    22   1
    24     7    23   1
    25    12    24   1
    26    12    25   1
    27    13    26   1
    28    14    27   1
    29    14    28   1
    30    14    29   1
    31    15    30   1
    32    15    31   1
    33    16    32   1
    34    16    33   1
    35    17    34   1
    36    18    35   1
    37    18    36   1
    38    18    37   1
@<TRIPOS>SUBSTRUCTURE
     1  SX3      2

