@<TRIPOS>MOLECULE
3cj2_ligand_031
    37    38
SMALL
GAST_HUCK
****
This file was generated by PARSER (from files_GN.cpp)

@<TRIPOS>ATOM
      1 BR1       -34.3926   17.6735   -9.7836 Br          1 SX3      -0.0605
      2 C11       -32.6323   17.4949   -9.2109 C.ar        1 SX3       0.0047
      3 C10       -31.7289   16.7215   -9.9611 C.ar        1 SX3      -0.0437
      4 C12       -32.2009   18.1290   -8.0325 C.ar        1 SX3      -0.0597
      5 C13       -30.8673   17.9949   -7.6057 C.ar        1 SX3      -0.0356
      6 C14       -29.9508   17.2271   -8.3552 C.ar        1 SX3       0.0599
      7 N2        -28.6785   17.1313   -7.9201 N.pl3       1 SX3      -0.3308
      8 C9        -30.3863   16.5711   -9.5372 C.ar        1 SX3       0.0698
      9 C8        -29.5304   15.7685  -10.2791 C.2         1 SX3       0.1999
     10 O1        -28.6730   16.3940  -10.8922 O.2         1 SX3      -0.3919
     11 N1        -29.5657   14.4203  -10.2981 N.am        1 SX3      -0.2741
     12 C6        -30.5761   13.6212   -9.6110 C.3         1 SX3       0.0356
     13 C4        -31.3319   12.7116  -10.6251 C.3         1 SX3      -0.0232
     14 C5        -32.4027   11.8341   -9.9280 C.3         1 SX3      -0.0606
     15 C3        -30.3147   11.8454  -11.4252 C.3         1 SX3      -0.0442
     16 C7        -28.5561   13.6394  -10.9988 C.3         1 SX3       0.0356
     17 C2        -29.2043   12.7214  -12.0754 C.3         1 SX3      -0.0232
     18 C1        -28.1445   11.8537  -12.8048 C.3         1 SX3      -0.0606
     19 H1        -32.0634   16.2541  -10.8106 H           1 SX3       0.0663
     20 H2        -32.8532   18.6932   -7.4853 H           1 SX3       0.0644
     21 H3        -30.5655   18.4610   -6.7475 H           1 SX3       0.0535
     22 H4        -28.4222   17.5551   -7.0921 H           1 SX3       0.1755
     23 H5        -28.0323   16.5918   -8.4037 H           1 SX3       0.1755
     24 H6        -31.3174   14.2140   -9.0742 H           1 SX3       0.0524
     25 H7        -30.0854   13.0057   -8.8520 H           1 SX3       0.0524
     26 H8        -31.8555   13.3640  -11.3341 H           1 SX3       0.0318
     27 H9        -32.9252   11.2224  -10.6659 H           1 SX3       0.0233
     28 H10       -33.1387   12.4632   -9.4244 H           1 SX3       0.0233
     29 H11       -31.9408   11.1752   -9.1903 H           1 SX3       0.0233
     30 H12       -30.8461   11.2955  -12.2077 H           1 SX3       0.0272
     31 H13       -29.8546   11.1151  -10.7532 H           1 SX3       0.0272
     32 H14       -28.0261   13.0237  -10.2658 H           1 SX3       0.0524
     33 H15       -27.8007   14.2553  -11.4903 H           1 SX3       0.0524
     34 H16       -29.6744   13.3639  -12.8279 H           1 SX3       0.0318
     35 H17       -28.6214   11.2309  -13.5641 H           1 SX3       0.0233
     36 H18       -27.6222   11.2043  -12.0981 H           1 SX3       0.0233
     37 H19       -27.4089   12.4914  -13.2996 H           1 SX3       0.0233
@<TRIPOS>BOND
     1     1     2   1
     2     2     3  ar
     3     2     4  ar
     4     3     8  ar
     5     4     5  ar
     6     5     6  ar
     7     6     7   1
     8     6     8  ar
     9     8     9   1
    10     9    10   2
    11     9    11  am
    12    11    12   1
    13    11    16   1
    14    12    13   1
    15    13    14   1
    16    13    15   1
    17    15    17   1
    18    16    17   1
    19    17    18   1
    20     3    19   1
    21     4    20   1
    22     5    21   1
    23     7    22   1
    24     7    23   1
    25    12    24   1
    26    12    25   1
    27    13    26   1
    28    14    27   1
    29    14    28   1
    30    14    29   1
    31    15    30   1
    32    15    31   1
    33    16    32   1
    34    16    33   1
    35    17    34   1
    36    18    35   1
    37    18    36   1
    38    18    37   1
@<TRIPOS>SUBSTRUCTURE
     1  SX3      2

