@<TRIPOS>MOLECULE
3cj2_ligand_057
    37    38
SMALL
GAST_HUCK
****
This file was generated by PARSER (from files_GN.cpp)

@<TRIPOS>ATOM
      1 BR1       -21.9846    4.9106  -18.8747 Br          1 SX3      -0.0605
      2 C11       -21.4284    6.2923  -17.7600 C.ar        1 SX3       0.0047
      3 C10       -22.3084    7.3437  -17.4466 C.ar        1 SX3      -0.0437
      4 C12       -20.1330    6.2797  -17.2187 C.ar        1 SX3      -0.0597
      5 C13       -19.7187    7.3174  -16.3676 C.ar        1 SX3      -0.0356
      6 C14       -20.5991    8.3693  -16.0387 C.ar        1 SX3       0.0599
      7 N2        -20.1369    9.3272  -15.2092 N.pl3       1 SX3      -0.3308
      8 C9        -21.9241    8.3809  -16.5607 C.ar        1 SX3       0.0698
      9 C8        -22.8344    9.3974  -16.2581 C.2         1 SX3       0.1999
     10 O1        -22.4235   10.5202  -16.5315 O.2         1 SX3      -0.3919
     11 N1        -24.0710    9.2342  -15.7363 N.am        1 SX3      -0.2741
     12 C6        -24.5973    7.9534  -15.2746 C.3         1 SX3       0.0356
     13 C4        -25.0097    8.0049  -13.7748 C.3         1 SX3      -0.0232
     14 C5        -25.6013    6.6516  -13.2969 C.3         1 SX3      -0.0606
     15 C3        -25.9924    9.1853  -13.5277 C.3         1 SX3      -0.0442
     16 C7        -24.9892   10.3559  -15.5657 C.3         1 SX3       0.0356
     17 C2        -25.4186   10.5238  -14.0766 C.3         1 SX3      -0.0232
     18 C1        -26.4257   11.6910  -13.8970 C.3         1 SX3      -0.0606
     19 H1        -23.2445    7.3368  -17.8606 H           1 SX3       0.0663
     20 H2        -19.4874    5.5202  -17.4473 H           1 SX3       0.0644
     21 H3        -18.7668    7.3024  -15.9932 H           1 SX3       0.0535
     22 H4        -19.2244    9.2858  -14.8804 H           1 SX3       0.1755
     23 H5        -20.7079   10.0640  -14.9421 H           1 SX3       0.1755
     24 H6        -23.8886    7.1308  -15.3669 H           1 SX3       0.0524
     25 H7        -25.4659    7.6947  -15.8891 H           1 SX3       0.0524
     26 H8        -24.1043    8.1872  -13.1866 H           1 SX3       0.0318
     27 H9        -25.8523    6.7011  -12.2353 H           1 SX3       0.0233
     28 H10       -24.8728    5.8496  -13.4373 H           1 SX3       0.0233
     29 H11       -26.5036    6.4043  -13.8602 H           1 SX3       0.0233
     30 H12       -26.1749    9.2825  -12.4535 H           1 SX3       0.0272
     31 H13       -26.9485    8.9703  -14.0153 H           1 SX3       0.0272
     32 H14       -25.8752   10.1722  -16.1809 H           1 SX3       0.0524
     33 H15       -24.5767   11.3103  -15.9046 H           1 SX3       0.0524
     34 H16       -24.5250   10.7711  -13.4939 H           1 SX3       0.0318
     35 H17       -26.7035   11.7939  -12.8463 H           1 SX3       0.0233
     36 H18       -27.3316   11.5141  -14.4807 H           1 SX3       0.0233
     37 H19       -25.9762   12.6308  -14.2242 H           1 SX3       0.0233
@<TRIPOS>BOND
     1     1     2   1
     2     2     3  ar
     3     2     4  ar
     4     3     8  ar
     5     4     5  ar
     6     5     6  ar
     7     6     7   1
     8     6     8  ar
     9     8     9   1
    10     9    10   2
    11     9    11  am
    12    11    12   1
    13    11    16   1
    14    12    13   1
    15    13    14   1
    16    13    15   1
    17    15    17   1
    18    16    17   1
    19    17    18   1
    20     3    19   1
    21     4    20   1
    22     5    21   1
    23     7    22   1
    24     7    23   1
    25    12    24   1
    26    12    25   1
    27    13    26   1
    28    14    27   1
    29    14    28   1
    30    14    29   1
    31    15    30   1
    32    15    31   1
    33    16    32   1
    34    16    33   1
    35    17    34   1
    36    18    35   1
    37    18    36   1
    38    18    37   1
@<TRIPOS>SUBSTRUCTURE
     1  SX3      2

