@<TRIPOS>MOLECULE
3cj2_ligand_012
    37    38
SMALL
GAST_HUCK
****
This file was generated by PARSER (from files_GN.cpp)

@<TRIPOS>ATOM
      1 BR1       -24.9301   10.8590  -15.9108 Br          1 SX3      -0.0605
      2 C11       -23.8274    9.4423  -16.4109 C.ar        1 SX3       0.0047
      3 C10       -24.3406    8.1343  -16.4655 C.ar        1 SX3      -0.0437
      4 C12       -22.4835    9.6829  -16.7397 C.ar        1 SX3      -0.0597
      5 C13       -21.6525    8.6155  -17.1271 C.ar        1 SX3      -0.0356
      6 C14       -22.1570    7.2986  -17.1833 C.ar        1 SX3       0.0599
      7 N2        -21.3189    6.3128  -17.5613 N.pl3       1 SX3      -0.3308
      8 C9        -23.5140    7.0499  -16.8464 C.ar        1 SX3       0.0698
      9 C8        -24.0697    5.7777  -16.8651 C.2         1 SX3       0.1999
     10 O1        -24.0289    5.2089  -15.7810 O.2         1 SX3      -0.3919
     11 N1        -24.6608    5.2062  -17.9339 N.am        1 SX3      -0.2741
     12 C6        -24.7112    5.8312  -19.2510 C.3         1 SX3       0.0356
     13 C4        -24.0508    4.9158  -20.3267 C.3         1 SX3      -0.0232
     14 C5        -24.1345    5.5403  -21.7448 C.3         1 SX3      -0.0606
     15 C3        -24.6950    3.4989  -20.2919 C.3         1 SX3      -0.0442
     16 C7        -25.3098    3.9028  -17.8482 C.3         1 SX3       0.0356
     17 C2        -24.6885    2.8944  -18.8568 C.3         1 SX3      -0.0232
     18 C1        -25.4149    1.5234  -18.8151 C.3         1 SX3      -0.0606
     19 H1        -25.3225    7.9775  -16.2185 H           1 SX3       0.0663
     20 H2        -22.1083   10.6337  -16.6962 H           1 SX3       0.0644
     21 H3        -20.6772    8.8074  -17.3702 H           1 SX3       0.0535
     22 H4        -20.3990    6.5192  -17.7895 H           1 SX3       0.1755
     23 H5        -21.6302    5.3977  -17.6112 H           1 SX3       0.1755
     24 H6        -24.2098    6.8019  -19.2915 H           1 SX3       0.0524
     25 H7        -25.7568    6.0140  -19.5162 H           1 SX3       0.0524
     26 H8        -22.9900    4.8133  -20.0756 H           1 SX3       0.0318
     27 H9        -23.6585    4.8823  -22.4740 H           1 SX3       0.0233
     28 H10       -23.6212    6.5042  -21.7639 H           1 SX3       0.0233
     29 H11       -25.1753    5.6926  -22.0384 H           1 SX3       0.0233
     30 H12       -24.1468    2.8353  -20.9644 H           1 SX3       0.0272
     31 H13       -25.7282    3.5641  -20.6493 H           1 SX3       0.0272
     32 H14       -26.3749    4.0267  -18.0638 H           1 SX3       0.0524
     33 H15       -25.2494    3.4566  -16.8507 H           1 SX3       0.0524
     34 H16       -23.6474    2.7282  -18.5603 H           1 SX3       0.0318
     35 H17       -24.9381    0.8240  -19.5046 H           1 SX3       0.0233
     36 H18       -26.4631    1.6359  -19.0977 H           1 SX3       0.0233
     37 H19       -25.3684    1.0984  -17.8107 H           1 SX3       0.0233
@<TRIPOS>BOND
     1     1     2   1
     2     2     3  ar
     3     2     4  ar
     4     3     8  ar
     5     4     5  ar
     6     5     6  ar
     7     6     7   1
     8     6     8  ar
     9     8     9   1
    10     9    10   2
    11     9    11  am
    12    11    12   1
    13    11    16   1
    14    12    13   1
    15    13    14   1
    16    13    15   1
    17    15    17   1
    18    16    17   1
    19    17    18   1
    20     3    19   1
    21     4    20   1
    22     5    21   1
    23     7    22   1
    24     7    23   1
    25    12    24   1
    26    12    25   1
    27    13    26   1
    28    14    27   1
    29    14    28   1
    30    14    29   1
    31    15    30   1
    32    15    31   1
    33    16    32   1
    34    16    33   1
    35    17    34   1
    36    18    35   1
    37    18    36   1
    38    18    37   1
@<TRIPOS>SUBSTRUCTURE
     1  SX3      2

