@<TRIPOS>MOLECULE
3cj2_ligand_024
    37    38
SMALL
GAST_HUCK
****
This file was generated by PARSER (from files_GN.cpp)

@<TRIPOS>ATOM
      1 BR1       -15.9613    0.8632  -25.7321 Br          1 SX3      -0.0605
      2 C11       -15.3350    1.3703  -24.0554 C.ar        1 SX3       0.0047
      3 C10       -16.0838    2.2655  -23.2756 C.ar        1 SX3      -0.0437
      4 C12       -14.1266    0.8546  -23.5594 C.ar        1 SX3      -0.0597
      5 C13       -13.6671    1.2350  -22.2853 C.ar        1 SX3      -0.0356
      6 C14       -14.4224    2.1216  -21.4882 C.ar        1 SX3       0.0599
      7 N2        -13.9453    2.4417  -20.2667 N.pl3       1 SX3      -0.3308
      8 C9        -15.6520    2.6419  -21.9811 C.ar        1 SX3       0.0698
      9 C8        -16.4229    3.5443  -21.2507 C.2         1 SX3       0.1999
     10 O1        -15.8257    4.5746  -20.9581 O.2         1 SX3      -0.3919
     11 N1        -17.7137    3.3769  -20.8969 N.am        1 SX3      -0.2741
     12 C6        -18.4667    2.1487  -21.1304 C.3         1 SX3       0.0356
     13 C4        -19.0048    1.5504  -19.8023 C.3         1 SX3      -0.0232
     14 C5        -19.8263    0.2574  -20.0502 C.3         1 SX3      -0.0606
     15 C3        -19.8274    2.6249  -19.0371 C.3         1 SX3      -0.0442
     16 C7        -18.4633    4.4290  -20.2225 C.3         1 SX3       0.0356
     17 C2        -19.0179    3.9419  -18.8526 C.3         1 SX3      -0.0232
     18 C1        -19.8697    5.0379  -18.1626 C.3         1 SX3      -0.0606
     19 H1        -16.9568    2.6367  -23.6591 H           1 SX3       0.0663
     20 H2        -13.5790    0.2052  -24.1275 H           1 SX3       0.0644
     21 H3        -12.7818    0.8524  -21.9406 H           1 SX3       0.0535
     22 H4        -13.1059    2.0690  -19.9543 H           1 SX3       0.1755
     23 H5        -14.4341    3.0581  -19.6976 H           1 SX3       0.1755
     24 H6        -17.8849    1.3539  -21.5965 H           1 SX3       0.0524
     25 H7        -19.2984    2.3783  -21.8066 H           1 SX3       0.0524
     26 H8        -18.1402    1.2717  -19.1908 H           1 SX3       0.0318
     27 H9        -20.1749   -0.1545  -19.1016 H           1 SX3       0.0233
     28 H10       -19.2094   -0.4985  -20.5418 H           1 SX3       0.0233
     29 H11       -20.6912    0.4650  -20.6842 H           1 SX3       0.0233
     30 H12       -20.1082    2.2323  -18.0570 H           1 SX3       0.0272
     31 H13       -20.7469    2.8354  -19.5941 H           1 SX3       0.0272
     32 H14       -19.2988    4.7127  -20.8622 H           1 SX3       0.0524
     33 H15       -17.8854    5.3429  -20.0492 H           1 SX3       0.0524
     34 H16       -18.1646    3.7327  -18.2006 H           1 SX3       0.0318
     35 H17       -20.2385    4.6790  -17.2004 H           1 SX3       0.0233
     36 H18       -20.7251    5.3103  -18.7849 H           1 SX3       0.0233
     37 H19       -19.2641    5.9295  -17.9876 H           1 SX3       0.0233
@<TRIPOS>BOND
     1     1     2   1
     2     2     3  ar
     3     2     4  ar
     4     3     8  ar
     5     4     5  ar
     6     5     6  ar
     7     6     7   1
     8     6     8  ar
     9     8     9   1
    10     9    10   2
    11     9    11  am
    12    11    12   1
    13    11    16   1
    14    12    13   1
    15    13    14   1
    16    13    15   1
    17    15    17   1
    18    16    17   1
    19    17    18   1
    20     3    19   1
    21     4    20   1
    22     5    21   1
    23     7    22   1
    24     7    23   1
    25    12    24   1
    26    12    25   1
    27    13    26   1
    28    14    27   1
    29    14    28   1
    30    14    29   1
    31    15    30   1
    32    15    31   1
    33    16    32   1
    34    16    33   1
    35    17    34   1
    36    18    35   1
    37    18    36   1
    38    18    37   1
@<TRIPOS>SUBSTRUCTURE
     1  SX3      2

