@<TRIPOS>MOLECULE
3cj2_ligand_018
    37    38
SMALL
GAST_HUCK
****
This file was generated by PARSER (from files_GN.cpp)

@<TRIPOS>ATOM
      1 BR1       -23.5019   -1.8080  -23.1398 Br          1 SX3      -0.0605
      2 C11       -22.3434   -1.1654  -21.8305 C.ar        1 SX3       0.0047
      3 C10       -21.7935    0.1227  -21.9481 C.ar        1 SX3      -0.0437
      4 C12       -21.9943   -1.9791  -20.7392 C.ar        1 SX3      -0.0597
      5 C13       -21.1027   -1.4979  -19.7626 C.ar        1 SX3      -0.0356
      6 C14       -20.5348   -0.2128  -19.8733 C.ar        1 SX3       0.0599
      7 N2        -19.6874    0.2026  -18.9138 N.pl3       1 SX3      -0.3308
      8 C9        -20.8805    0.6102  -20.9828 C.ar        1 SX3       0.0698
      9 C8        -20.3300    1.8742  -21.1512 C.2         1 SX3       0.1999
     10 O1        -21.1051    2.7905  -20.8936 O.2         1 SX3      -0.3919
     11 N1        -19.0561    2.1163  -21.5195 N.am        1 SX3      -0.2741
     12 C6        -18.4909    3.4549  -21.4710 C.3         1 SX3       0.0356
     13 C4        -17.1437    3.4979  -20.6932 C.3         1 SX3      -0.0232
     14 C5        -16.5366    4.9254  -20.7169 C.3         1 SX3      -0.0606
     15 C3        -16.1644    2.4406  -21.2791 C.3         1 SX3      -0.0442
     16 C7        -18.1808    1.0963  -22.0827 C.3         1 SX3       0.0356
     17 C2        -16.8173    1.0279  -21.3351 C.3         1 SX3      -0.0232
     18 C1        -15.8636   -0.0136  -21.9803 C.3         1 SX3      -0.0606
     19 H1        -22.0454    0.6958  -22.7594 H           1 SX3       0.0663
     20 H2        -22.3773   -2.9251  -20.6568 H           1 SX3       0.0644
     21 H3        -20.8628   -2.0986  -18.9686 H           1 SX3       0.0535
     22 H4        -19.4885   -0.3716  -18.1553 H           1 SX3       0.1755
     23 H5        -19.2918    1.0873  -18.9545 H           1 SX3       0.1755
     24 H6        -19.1539    4.1866  -20.9987 H           1 SX3       0.0524
     25 H7        -18.3241    3.7854  -22.4957 H           1 SX3       0.0524
     26 H8        -17.3430    3.2374  -19.6463 H           1 SX3       0.0318
     27 H9        -15.5481    4.9231  -20.2599 H           1 SX3       0.0233
     28 H10       -17.1680    5.6174  -20.1564 H           1 SX3       0.0233
     29 H11       -16.4463    5.2922  -21.7395 H           1 SX3       0.0233
     30 H12       -15.2649    2.3930  -20.6562 H           1 SX3       0.0272
     31 H13       -15.8600    2.7477  -22.2820 H           1 SX3       0.0272
     32 H14       -18.0000    1.3435  -23.1330 H           1 SX3       0.0524
     33 H15       -18.6249    0.0984  -22.0765 H           1 SX3       0.0524
     34 H16       -17.0132    0.6997  -20.3064 H           1 SX3       0.0318
     35 H17       -14.9424   -0.0950  -21.3995 H           1 SX3       0.0233
     36 H18       -15.6049    0.2791  -23.0015 H           1 SX3       0.0233
     37 H19       -16.3358   -0.9959  -22.0137 H           1 SX3       0.0233
@<TRIPOS>BOND
     1     1     2   1
     2     2     3  ar
     3     2     4  ar
     4     3     8  ar
     5     4     5  ar
     6     5     6  ar
     7     6     7   1
     8     6     8  ar
     9     8     9   1
    10     9    10   2
    11     9    11  am
    12    11    12   1
    13    11    16   1
    14    12    13   1
    15    13    14   1
    16    13    15   1
    17    15    17   1
    18    16    17   1
    19    17    18   1
    20     3    19   1
    21     4    20   1
    22     5    21   1
    23     7    22   1
    24     7    23   1
    25    12    24   1
    26    12    25   1
    27    13    26   1
    28    14    27   1
    29    14    28   1
    30    14    29   1
    31    15    30   1
    32    15    31   1
    33    16    32   1
    34    16    33   1
    35    17    34   1
    36    18    35   1
    37    18    36   1
    38    18    37   1
@<TRIPOS>SUBSTRUCTURE
     1  SX3      2

