@<TRIPOS>MOLECULE
3cj2_ligand_090
    37    38
SMALL
GAST_HUCK
****
This file was generated by PARSER (from files_GN.cpp)

@<TRIPOS>ATOM
      1 BR1       -20.4031    2.5256  -25.7127 Br          1 SX3      -0.0605
      2 C11       -20.2706    1.5071  -24.1619 C.ar        1 SX3       0.0047
      3 C10       -20.6189    2.0578  -22.9149 C.ar        1 SX3      -0.0437
      4 C12       -19.8162    0.1781  -24.2364 C.ar        1 SX3      -0.0597
      5 C13       -19.7210   -0.5960  -23.0699 C.ar        1 SX3      -0.0356
      6 C14       -20.0630   -0.0480  -21.8156 C.ar        1 SX3       0.0599
      7 N2        -19.9433   -0.8343  -20.7259 N.pl3       1 SX3      -0.3308
      8 C9        -20.5137    1.2954  -21.7274 C.ar        1 SX3       0.0698
      9 C8        -20.8370    1.8932  -20.5115 C.2         1 SX3       0.1999
     10 O1        -22.0390    2.0514  -20.3494 O.2         1 SX3      -0.3919
     11 N1        -19.9329    2.3212  -19.6024 N.am        1 SX3      -0.2741
     12 C6        -20.3469    3.0371  -18.3978 C.3         1 SX3       0.0356
     13 C4        -19.7495    4.4765  -18.3322 C.3         1 SX3      -0.0232
     14 C5        -20.5418    5.4756  -19.2102 C.3         1 SX3      -0.0606
     15 C3        -18.2178    4.4528  -18.6302 C.3         1 SX3      -0.0442
     16 C7        -18.4923    2.1586  -19.7383 C.3         1 SX3       0.0356
     17 C2        -17.7682    3.5313  -19.8088 C.3         1 SX3      -0.0232
     18 C1        -17.9160    4.1788  -21.2103 C.3         1 SX3      -0.0606
     19 H1        -20.9388    3.0304  -22.8829 H           1 SX3       0.0663
     20 H2        -19.5642   -0.2252  -25.1382 H           1 SX3       0.0644
     21 H3        -19.3872   -1.5629  -23.1376 H           1 SX3       0.0535
     22 H4        -19.6440   -1.7541  -20.8203 H           1 SX3       0.1755
     23 H5        -20.1489   -0.4853  -19.8442 H           1 SX3       0.1755
     24 H6        -19.9999    2.4791  -17.5231 H           1 SX3       0.0524
     25 H7        -21.4350    3.1088  -18.2829 H           1 SX3       0.0524
     26 H8        -19.8753    4.8380  -17.3023 H           1 SX3       0.0318
     27 H9        -20.0729    6.4608  -19.1973 H           1 SX3       0.0233
     28 H10       -21.5639    5.5788  -18.8418 H           1 SX3       0.0233
     29 H11       -20.5872    5.1203  -20.2342 H           1 SX3       0.0233
     30 H12       -17.7318    4.0816  -17.7229 H           1 SX3       0.0272
     31 H13       -17.8421    5.4688  -18.7779 H           1 SX3       0.0272
     32 H14       -18.1943    1.5741  -20.6042 H           1 SX3       0.0524
     33 H15       -18.1360    1.6047  -18.8730 H           1 SX3       0.0524
     34 H16       -16.7003    3.3494  -19.6858 H           1 SX3       0.0318
     35 H17       -17.5265    5.1992  -21.2170 H           1 SX3       0.0233
     36 H18       -18.9579    4.1973  -21.5198 H           1 SX3       0.0233
     37 H19       -17.3611    3.6019  -21.9542 H           1 SX3       0.0233
@<TRIPOS>BOND
     1     1     2   1
     2     2     3  ar
     3     2     4  ar
     4     3     8  ar
     5     4     5  ar
     6     5     6  ar
     7     6     7   1
     8     6     8  ar
     9     8     9   1
    10     9    10   2
    11     9    11  am
    12    11    12   1
    13    11    16   1
    14    12    13   1
    15    13    14   1
    16    13    15   1
    17    15    17   1
    18    16    17   1
    19    17    18   1
    20     3    19   1
    21     4    20   1
    22     5    21   1
    23     7    22   1
    24     7    23   1
    25    12    24   1
    26    12    25   1
    27    13    26   1
    28    14    27   1
    29    14    28   1
    30    14    29   1
    31    15    30   1
    32    15    31   1
    33    16    32   1
    34    16    33   1
    35    17    34   1
    36    18    35   1
    37    18    36   1
    38    18    37   1
@<TRIPOS>SUBSTRUCTURE
     1  SX3      2

