@<TRIPOS>MOLECULE
3cj2_ligand_039
    37    38
SMALL
GAST_HUCK
****
This file was generated by PARSER (from files_GN.cpp)

@<TRIPOS>ATOM
      1 BR1       -24.9877    3.7971  -21.7376 Br          1 SX3      -0.0605
      2 C11       -23.5413    3.7546  -20.5665 C.ar        1 SX3       0.0047
      3 C10       -22.5286    2.7904  -20.7194 C.ar        1 SX3      -0.0437
      4 C12       -23.4547    4.6939  -19.5183 C.ar        1 SX3      -0.0597
      5 C13       -22.3818    4.6387  -18.6180 C.ar        1 SX3      -0.0356
      6 C14       -21.3742    3.6559  -18.7511 C.ar        1 SX3       0.0599
      7 N2        -20.4104    3.6308  -17.8129 N.pl3       1 SX3      -0.3308
      8 C9        -21.4146    2.7328  -19.8374 C.ar        1 SX3       0.0698
      9 C8        -20.4279    1.7603  -20.0562 C.2         1 SX3       0.1999
     10 O1        -20.8823    0.6365  -20.2331 O.2         1 SX3      -0.3919
     11 N1        -19.0901    1.9567  -20.1480 N.am        1 SX3      -0.2741
     12 C6        -18.1658    0.8592  -20.4325 C.3         1 SX3       0.0356
     13 C4        -17.4146    1.1154  -21.7753 C.3         1 SX3      -0.0232
     14 C5        -16.4127   -0.0103  -22.1293 C.3         1 SX3      -0.0606
     15 C3        -16.6939    2.4952  -21.7327 C.3         1 SX3      -0.0442
     16 C7        -18.4436    3.2600  -20.0424 C.3         1 SX3       0.0356
     17 C2        -17.6858    3.6229  -21.3481 C.3         1 SX3      -0.0232
     18 C1        -16.9905    5.0069  -21.2332 C.3         1 SX3      -0.0606
     19 H1        -22.6100    2.1348  -21.5005 H           1 SX3       0.0663
     20 H2        -24.1929    5.4012  -19.4057 H           1 SX3       0.0644
     21 H3        -22.3403    5.3273  -17.8596 H           1 SX3       0.0535
     22 H4        -20.4018    4.2924  -17.0994 H           1 SX3       0.1755
     23 H5        -19.6952    2.9815  -17.8710 H           1 SX3       0.1755
     24 H6        -18.6482   -0.1201  -20.5022 H           1 SX3       0.0524
     25 H7        -17.4431    0.7782  -19.6141 H           1 SX3       0.0524
     26 H8        -18.1627    1.1476  -22.5752 H           1 SX3       0.0318
     27 H9        -15.9735    0.1733  -23.1125 H           1 SX3       0.0233
     28 H10       -16.9230   -0.9735  -22.1609 H           1 SX3       0.0233
     29 H11       -15.6097   -0.0594  -21.3916 H           1 SX3       0.0233
     30 H12       -16.2658    2.7285  -22.7139 H           1 SX3       0.0272
     31 H13       -15.8826    2.4679  -20.9993 H           1 SX3       0.0272
     32 H14       -17.7425    3.2395  -19.1943 H           1 SX3       0.0524
     33 H15       -19.1356    4.0847  -19.8760 H           1 SX3       0.0524
     34 H16       -18.4398    3.6960  -22.1349 H           1 SX3       0.0318
     35 H17       -16.5721    5.2952  -22.1988 H           1 SX3       0.0233
     36 H18       -16.1875    4.9794  -20.4914 H           1 SX3       0.0233
     37 H19       -17.7117    5.7717  -20.9359 H           1 SX3       0.0233
@<TRIPOS>BOND
     1     1     2   1
     2     2     3  ar
     3     2     4  ar
     4     3     8  ar
     5     4     5  ar
     6     5     6  ar
     7     6     7   1
     8     6     8  ar
     9     8     9   1
    10     9    10   2
    11     9    11  am
    12    11    12   1
    13    11    16   1
    14    12    13   1
    15    13    14   1
    16    13    15   1
    17    15    17   1
    18    16    17   1
    19    17    18   1
    20     3    19   1
    21     4    20   1
    22     5    21   1
    23     7    22   1
    24     7    23   1
    25    12    24   1
    26    12    25   1
    27    13    26   1
    28    14    27   1
    29    14    28   1
    30    14    29   1
    31    15    30   1
    32    15    31   1
    33    16    32   1
    34    16    33   1
    35    17    34   1
    36    18    35   1
    37    18    36   1
    38    18    37   1
@<TRIPOS>SUBSTRUCTURE
     1  SX3      2

