@<TRIPOS>MOLECULE
3cj2_ligand_084
    37    38
SMALL
GAST_HUCK
****
This file was generated by PARSER (from files_GN.cpp)

@<TRIPOS>ATOM
      1 BR1       -31.3263   10.0510  -14.0814 Br          1 SX3      -0.0605
      2 C11       -31.1810   10.5261  -12.2897 C.ar        1 SX3       0.0047
      3 C10       -31.7893    9.7330  -11.2995 C.ar        1 SX3      -0.0437
      4 C12       -30.4675   11.6784  -11.9200 C.ar        1 SX3      -0.0597
      5 C13       -30.3672   12.0400  -10.5665 C.ar        1 SX3      -0.0356
      6 C14       -30.9703   11.2466   -9.5678 C.ar        1 SX3       0.0599
      7 N2        -30.8283   11.6391   -8.2839 N.pl3       1 SX3      -0.3308
      8 C9        -31.6790   10.0686   -9.9278 C.ar        1 SX3       0.0698
      9 C8        -32.2931    9.2544   -8.9767 C.2         1 SX3       0.1999
     10 O1        -33.1623    9.8268   -8.3282 O.2         1 SX3      -0.3919
     11 N1        -32.0211    7.9477   -8.7605 N.am        1 SX3      -0.2741
     12 C6        -32.7957    7.1366   -7.8286 C.3         1 SX3       0.0356
     13 C4        -33.4403    5.9221   -8.5609 C.3         1 SX3      -0.0232
     14 C5        -34.2319    5.0111   -7.5844 C.3         1 SX3      -0.0606
     15 C3        -32.3563    5.1166   -9.3387 C.3         1 SX3      -0.0442
     16 C7        -30.9333    7.2302   -9.4154 C.3         1 SX3       0.0356
     17 C2        -31.4964    6.0423  -10.2495 C.3         1 SX3      -0.0232
     18 C1        -30.3742    5.2488  -10.9695 C.3         1 SX3      -0.0606
     19 H1        -32.3159    8.9042  -11.5910 H           1 SX3       0.0663
     20 H2        -30.0238   12.2566  -12.6360 H           1 SX3       0.0644
     21 H3        -29.8466   12.8829  -10.3128 H           1 SX3       0.0535
     22 H4        -30.3327   12.4443   -8.0756 H           1 SX3       0.1755
     23 H5        -31.2179   11.1168   -7.5660 H           1 SX3       0.1755
     24 H6        -33.5956    7.6933   -7.3320 H           1 SX3       0.0524
     25 H7        -32.1304    6.7787   -7.0362 H           1 SX3       0.0524
     26 H8        -34.1564    6.3141   -9.2919 H           1 SX3       0.0318
     27 H9        -34.6996    4.1883   -8.1289 H           1 SX3       0.0233
     28 H10       -35.0185    5.5818   -7.0881 H           1 SX3       0.0233
     29 H11       -33.5705    4.5930   -6.8221 H           1 SX3       0.0233
     30 H12       -32.8447    4.3554   -9.9541 H           1 SX3       0.0272
     31 H13       -31.7037    4.6059   -8.6257 H           1 SX3       0.0272
     32 H14       -30.2500    6.8511   -8.6486 H           1 SX3       0.0524
     33 H15       -30.3238    7.8599  -10.0633 H           1 SX3       0.0524
     34 H16       -32.1497    6.4525  -11.0258 H           1 SX3       0.0318
     35 H17       -30.8053    4.4394  -11.5609 H           1 SX3       0.0233
     36 H18       -29.6768    4.8212  -10.2466 H           1 SX3       0.0233
     37 H19       -29.8210    5.9061  -11.6443 H           1 SX3       0.0233
@<TRIPOS>BOND
     1     1     2   1
     2     2     3  ar
     3     2     4  ar
     4     3     8  ar
     5     4     5  ar
     6     5     6  ar
     7     6     7   1
     8     6     8  ar
     9     8     9   1
    10     9    10   2
    11     9    11  am
    12    11    12   1
    13    11    16   1
    14    12    13   1
    15    13    14   1
    16    13    15   1
    17    15    17   1
    18    16    17   1
    19    17    18   1
    20     3    19   1
    21     4    20   1
    22     5    21   1
    23     7    22   1
    24     7    23   1
    25    12    24   1
    26    12    25   1
    27    13    26   1
    28    14    27   1
    29    14    28   1
    30    14    29   1
    31    15    30   1
    32    15    31   1
    33    16    32   1
    34    16    33   1
    35    17    34   1
    36    18    35   1
    37    18    36   1
    38    18    37   1
@<TRIPOS>SUBSTRUCTURE
     1  SX3      2

