@<TRIPOS>MOLECULE
3cj2_ligand_008
    37    38
SMALL
GAST_HUCK
****
This file was generated by PARSER (from files_GN.cpp)

@<TRIPOS>ATOM
      1 BR1       -22.6821    7.0963  -18.0378 Br          1 SX3      -0.0605
      2 C11       -21.8483    5.4753  -18.4058 C.ar        1 SX3       0.0047
      3 C10       -22.3399    4.6428  -19.4277 C.ar        1 SX3      -0.0437
      4 C12       -20.7266    5.0814  -17.6570 C.ar        1 SX3      -0.0597
      5 C13       -20.0877    3.8618  -17.9379 C.ar        1 SX3      -0.0356
      6 C14       -20.5711    3.0194  -18.9607 C.ar        1 SX3       0.0599
      7 N2        -19.9030    1.8728  -19.1987 N.pl3       1 SX3      -0.3308
      8 C9        -21.7185    3.4028  -19.7049 C.ar        1 SX3       0.0698
      9 C8        -22.2407    2.5931  -20.7047 C.2         1 SX3       0.1999
     10 O1        -21.7706    2.8234  -21.8118 O.2         1 SX3      -0.3919
     11 N1        -23.1404    1.6083  -20.5111 N.am        1 SX3      -0.2741
     12 C6        -23.8357    1.3954  -19.2489 C.3         1 SX3       0.0356
     13 C4        -25.3789    1.4998  -19.4369 C.3         1 SX3      -0.0232
     14 C5        -26.1438    1.2433  -18.1103 C.3         1 SX3      -0.0606
     15 C3        -25.8496    0.5364  -20.5671 C.3         1 SX3      -0.0442
     16 C7        -23.5084    0.6775  -21.5708 C.3         1 SX3       0.0356
     17 C2        -25.0339    0.7548  -21.8758 C.3         1 SX3      -0.0232
     18 C1        -25.4534   -0.2446  -22.9861 C.3         1 SX3      -0.0606
     19 H1        -23.1582    4.9453  -19.9629 H           1 SX3       0.0663
     20 H2        -20.3706    5.6822  -16.9106 H           1 SX3       0.0644
     21 H3        -19.2654    3.5935  -17.3914 H           1 SX3       0.0535
     22 H4        -19.1269    1.6466  -18.6616 H           1 SX3       0.1755
     23 H5        -20.1894    1.2724  -19.9052 H           1 SX3       0.1755
     24 H6        -23.5493    2.1087  -18.4746 H           1 SX3       0.0524
     25 H7        -23.5783    0.4028  -18.8726 H           1 SX3       0.0524
     26 H8        -25.6090    2.5247  -19.7505 H           1 SX3       0.0318
     27 H9        -27.2194    1.3497  -18.2682 H           1 SX3       0.0233
     28 H10       -25.8382    1.9666  -17.3511 H           1 SX3       0.0233
     29 H11       -25.9432    0.2380  -17.7344 H           1 SX3       0.0233
     30 H12       -26.9106    0.7077  -20.7703 H           1 SX3       0.0272
     31 H13       -25.7341   -0.4996  -20.2339 H           1 SX3       0.0272
     32 H14       -23.2527   -0.3370  -21.2471 H           1 SX3       0.0524
     33 H15       -22.9613    0.8480  -22.5023 H           1 SX3       0.0524
     34 H16       -25.2494    1.7627  -22.2461 H           1 SX3       0.0318
     35 H17       -26.5246   -0.1644  -23.1821 H           1 SX3       0.0233
     36 H18       -25.2279   -1.2710  -22.6896 H           1 SX3       0.0233
     37 H19       -24.9204   -0.0233  -23.9131 H           1 SX3       0.0233
@<TRIPOS>BOND
     1     1     2   1
     2     2     3  ar
     3     2     4  ar
     4     3     8  ar
     5     4     5  ar
     6     5     6  ar
     7     6     7   1
     8     6     8  ar
     9     8     9   1
    10     9    10   2
    11     9    11  am
    12    11    12   1
    13    11    16   1
    14    12    13   1
    15    13    14   1
    16    13    15   1
    17    15    17   1
    18    16    17   1
    19    17    18   1
    20     3    19   1
    21     4    20   1
    22     5    21   1
    23     7    22   1
    24     7    23   1
    25    12    24   1
    26    12    25   1
    27    13    26   1
    28    14    27   1
    29    14    28   1
    30    14    29   1
    31    15    30   1
    32    15    31   1
    33    16    32   1
    34    16    33   1
    35    17    34   1
    36    18    35   1
    37    18    36   1
    38    18    37   1
@<TRIPOS>SUBSTRUCTURE
     1  SX3      2

