@<TRIPOS>MOLECULE
3cj2_ligand_020
    37    38
SMALL
GAST_HUCK
****
This file was generated by PARSER (from files_GN.cpp)

@<TRIPOS>ATOM
      1 BR1       -22.3629    2.2873  -20.2686 Br          1 SX3      -0.0605
      2 C11       -23.2184    3.4254  -19.0726 C.ar        1 SX3       0.0047
      3 C10       -22.7957    4.7607  -18.9401 C.ar        1 SX3      -0.0437
      4 C12       -24.2886    2.9465  -18.2992 C.ar        1 SX3      -0.0597
      5 C13       -24.9602    3.8100  -17.4172 C.ar        1 SX3      -0.0356
      6 C14       -24.5766    5.1658  -17.3187 C.ar        1 SX3       0.0599
      7 N2        -25.3046    5.9565  -16.5063 N.pl3       1 SX3      -0.3308
      8 C9        -23.4641    5.6443  -18.0559 C.ar        1 SX3       0.0698
      9 C8        -23.0052    6.9523  -17.9502 C.2         1 SX3       0.1999
     10 O1        -23.6713    7.7576  -18.5908 O.2         1 SX3      -0.3919
     11 N1        -21.9478    7.3520  -17.2121 N.am        1 SX3      -0.2741
     12 C6        -21.2233    6.4753  -16.2981 C.3         1 SX3       0.0356
     13 C4        -21.3684    6.9637  -14.8217 C.3         1 SX3      -0.0232
     14 C5        -22.7554    6.6126  -14.2171 C.3         1 SX3      -0.0606
     15 C3        -21.0239    8.4825  -14.7151 C.3         1 SX3      -0.0442
     16 C7        -21.4830    8.7351  -17.2119 C.3         1 SX3       0.0356
     17 C2        -21.6621    9.3943  -15.8113 C.3         1 SX3      -0.0232
     18 C1        -23.1426    9.7938  -15.5538 C.3         1 SX3      -0.0606
     19 H1        -22.0153    5.0942  -19.5130 H           1 SX3       0.0663
     20 H2        -24.5867    1.9721  -18.3808 H           1 SX3       0.0644
     21 H3        -25.7284    3.4461  -16.8526 H           1 SX3       0.0535
     22 H4        -26.0214    5.5742  -15.9738 H           1 SX3       0.1755
     23 H5        -25.0726    6.8904  -16.4044 H           1 SX3       0.1755
     24 H6        -20.1632    6.4850  -16.5719 H           1 SX3       0.0524
     25 H7        -21.5313    5.4286  -16.3609 H           1 SX3       0.0524
     26 H8        -20.6282    6.4169  -14.2254 H           1 SX3       0.0318
     27 H9        -22.8996    7.0909  -13.2458 H           1 SX3       0.0233
     28 H10       -22.8629    5.5275  -14.0981 H           1 SX3       0.0233
     29 H11       -23.5408    6.9712  -14.8683 H           1 SX3       0.0233
     30 H12       -19.9377    8.5758  -14.8053 H           1 SX3       0.0272
     31 H13       -21.2824    8.8560  -13.7229 H           1 SX3       0.0272
     32 H14       -21.9668    9.3615  -17.9648 H           1 SX3       0.0524
     33 H15       -20.4200    8.7455  -17.4716 H           1 SX3       0.0524
     34 H16       -21.0946   10.3317  -15.8111 H           1 SX3       0.0318
     35 H17       -23.2974   10.0530  -14.5063 H           1 SX3       0.0233
     36 H18       -23.8289    8.9917  -15.8187 H           1 SX3       0.0233
     37 H19       -23.4022   10.6625  -16.1626 H           1 SX3       0.0233
@<TRIPOS>BOND
     1     1     2   1
     2     2     3  ar
     3     2     4  ar
     4     3     8  ar
     5     4     5  ar
     6     5     6  ar
     7     6     7   1
     8     6     8  ar
     9     8     9   1
    10     9    10   2
    11     9    11  am
    12    11    12   1
    13    11    16   1
    14    12    13   1
    15    13    14   1
    16    13    15   1
    17    15    17   1
    18    16    17   1
    19    17    18   1
    20     3    19   1
    21     4    20   1
    22     5    21   1
    23     7    22   1
    24     7    23   1
    25    12    24   1
    26    12    25   1
    27    13    26   1
    28    14    27   1
    29    14    28   1
    30    14    29   1
    31    15    30   1
    32    15    31   1
    33    16    32   1
    34    16    33   1
    35    17    34   1
    36    18    35   1
    37    18    36   1
    38    18    37   1
@<TRIPOS>SUBSTRUCTURE
     1  SX3      2

