@<TRIPOS>MOLECULE
3cj2_ligand_070
    37    38
SMALL
GAST_HUCK
****
This file was generated by PARSER (from files_GN.cpp)

@<TRIPOS>ATOM
      1 BR1       -27.8107   10.9527  -11.6498 Br          1 SX3      -0.0605
      2 C11       -28.3673   12.6860  -12.0332 C.ar        1 SX3       0.0047
      3 C10       -28.4859   13.6401  -11.0048 C.ar        1 SX3      -0.0437
      4 C12       -28.6703   13.0418  -13.3589 C.ar        1 SX3      -0.0597
      5 C13       -29.0813   14.3508  -13.6598 C.ar        1 SX3      -0.0356
      6 C14       -29.1942   15.3148  -12.6376 C.ar        1 SX3       0.0599
      7 N2        -29.6132   16.5491  -12.9819 N.pl3       1 SX3      -0.3308
      8 C9        -28.8936   14.9647  -11.2949 C.ar        1 SX3       0.0698
      9 C8        -28.9793   15.8852  -10.2573 C.2         1 SX3       0.1999
     10 O1        -28.0311   16.6600  -10.2082 O.2         1 SX3      -0.3919
     11 N1        -29.9935   15.9675   -9.3700 N.am        1 SX3      -0.2741
     12 C6        -31.1951   15.1492   -9.4464 C.3         1 SX3       0.0356
     13 C4        -32.4805   16.0144   -9.6206 C.3         1 SX3      -0.0232
     14 C5        -32.6947   16.4896  -11.0834 C.3         1 SX3      -0.0606
     15 C3        -32.5096   17.1794   -8.5815 C.3         1 SX3      -0.0442
     16 C7        -29.9842   16.9197   -8.2657 C.3         1 SX3       0.0356
     17 C2        -31.1582   17.9368   -8.3763 C.3         1 SX3      -0.0232
     18 C1        -30.8630   19.0460   -9.4251 C.3         1 SX3      -0.0606
     19 H1        -28.2660   13.3607  -10.0451 H           1 SX3       0.0663
     20 H2        -28.5912   12.3483  -14.1072 H           1 SX3       0.0644
     21 H3        -29.2999   14.5965  -14.6291 H           1 SX3       0.0535
     22 H4        -29.8445   16.7451  -13.9036 H           1 SX3       0.1755
     23 H5        -29.7236   17.2304  -12.3042 H           1 SX3       0.1755
     24 H6        -31.2758   14.5794   -8.5169 H           1 SX3       0.0524
     25 H7        -31.1712   14.4034  -10.2431 H           1 SX3       0.0524
     26 H8        -33.3339   15.3650   -9.3985 H           1 SX3       0.0318
     27 H9        -33.6037   17.0920  -11.1560 H           1 SX3       0.0233
     28 H10       -32.8056   15.6289  -11.7479 H           1 SX3       0.0233
     29 H11       -31.8576   17.0854  -11.4385 H           1 SX3       0.0233
     30 H12       -32.7858   16.7435   -7.6155 H           1 SX3       0.0272
     31 H13       -33.3027   17.8894   -8.8323 H           1 SX3       0.0272
     32 H14       -29.0462   17.4728   -8.1671 H           1 SX3       0.0524
     33 H15       -30.0951   16.3662   -7.3292 H           1 SX3       0.0524
     34 H16       -31.2331   18.4555   -7.4133 H           1 SX3       0.0318
     35 H17       -31.7388   19.6813   -9.5709 H           1 SX3       0.0233
     36 H18       -30.5683   18.6270  -10.3853 H           1 SX3       0.0233
     37 H19       -30.0430   19.6763   -9.0739 H           1 SX3       0.0233
@<TRIPOS>BOND
     1     1     2   1
     2     2     3  ar
     3     2     4  ar
     4     3     8  ar
     5     4     5  ar
     6     5     6  ar
     7     6     7   1
     8     6     8  ar
     9     8     9   1
    10     9    10   2
    11     9    11  am
    12    11    12   1
    13    11    16   1
    14    12    13   1
    15    13    14   1
    16    13    15   1
    17    15    17   1
    18    16    17   1
    19    17    18   1
    20     3    19   1
    21     4    20   1
    22     5    21   1
    23     7    22   1
    24     7    23   1
    25    12    24   1
    26    12    25   1
    27    13    26   1
    28    14    27   1
    29    14    28   1
    30    14    29   1
    31    15    30   1
    32    15    31   1
    33    16    32   1
    34    16    33   1
    35    17    34   1
    36    18    35   1
    37    18    36   1
    38    18    37   1
@<TRIPOS>SUBSTRUCTURE
     1  SX3      2

