@<TRIPOS>MOLECULE
3cj2_ligand_073
    37    38
SMALL
GAST_HUCK
****
This file was generated by PARSER (from files_GN.cpp)

@<TRIPOS>ATOM
      1 BR1       -33.9877   13.3789   -9.0868 Br          1 SX3      -0.0605
      2 C11       -32.1474   13.1116   -9.0686 C.ar        1 SX3       0.0047
      3 C10       -31.3452   13.6839  -10.0700 C.ar        1 SX3      -0.0437
      4 C12       -31.5572   12.3390   -8.0548 C.ar        1 SX3      -0.0597
      5 C13       -30.1663   12.1359   -8.0433 C.ar        1 SX3      -0.0356
      6 C14       -29.3528   12.7067   -9.0455 C.ar        1 SX3       0.0599
      7 N2        -28.0225   12.4978   -8.9822 N.pl3       1 SX3      -0.3308
      8 C9        -29.9464   13.4819  -10.0779 C.ar        1 SX3       0.0698
      9 C8        -29.2006   14.0404  -11.1071 C.2         1 SX3       0.1999
     10 O1        -28.6305   15.0823  -10.8008 O.2         1 SX3      -0.3919
     11 N1        -29.1117   13.5285  -12.3522 N.am        1 SX3      -0.2741
     12 C6        -28.4056   14.2229  -13.4188 C.3         1 SX3       0.0356
     13 C4        -29.3444   14.5030  -14.6279 C.3         1 SX3      -0.0232
     14 C5        -30.3200   15.6791  -14.3424 C.3         1 SX3      -0.0606
     15 C3        -30.0368   13.1817  -15.0894 C.3         1 SX3      -0.0442
     16 C7        -29.6419   12.2251  -12.7343 C.3         1 SX3       0.0356
     17 C2        -30.6224   12.2912  -13.9465 C.3         1 SX3      -0.0232
     18 C1        -32.0742   12.6651  -13.5410 C.3         1 SX3      -0.0606
     19 H1        -31.7898   14.2606  -10.7864 H           1 SX3       0.0663
     20 H2        -32.1394   11.9257   -7.3251 H           1 SX3       0.0644
     21 H3        -29.7482   11.5779   -7.2931 H           1 SX3       0.0535
     22 H4        -27.6413   11.9903   -8.2476 H           1 SX3       0.1755
     23 H5        -27.4373   12.8745   -9.6555 H           1 SX3       0.1755
     24 H6        -27.5744   13.5930  -13.7528 H           1 SX3       0.0524
     25 H7        -27.9551   15.1701  -13.1076 H           1 SX3       0.0524
     26 H8        -28.7137   14.8343  -15.4589 H           1 SX3       0.0318
     27 H9        -31.0104   15.8154  -15.1764 H           1 SX3       0.0233
     28 H10       -29.7611   16.6078  -14.2127 H           1 SX3       0.0233
     29 H11       -30.8923   15.5111  -13.4326 H           1 SX3       0.0233
     30 H12       -29.2777   12.5848  -15.6084 H           1 SX3       0.0272
     31 H13       -30.8091   13.4041  -15.8301 H           1 SX3       0.0272
     32 H14       -30.1311   11.6933  -11.9161 H           1 SX3       0.0524
     33 H15       -28.7919   11.5964  -13.0179 H           1 SX3       0.0524
     34 H16       -30.6963   11.2726  -14.3476 H           1 SX3       0.0318
     35 H17       -32.7279   12.6429  -14.4146 H           1 SX3       0.0233
     36 H18       -32.1264   13.6537  -13.0983 H           1 SX3       0.0233
     37 H19       -32.4589   11.9465  -12.8146 H           1 SX3       0.0233
@<TRIPOS>BOND
     1     1     2   1
     2     2     3  ar
     3     2     4  ar
     4     3     8  ar
     5     4     5  ar
     6     5     6  ar
     7     6     7   1
     8     6     8  ar
     9     8     9   1
    10     9    10   2
    11     9    11  am
    12    11    12   1
    13    11    16   1
    14    12    13   1
    15    13    14   1
    16    13    15   1
    17    15    17   1
    18    16    17   1
    19    17    18   1
    20     3    19   1
    21     4    20   1
    22     5    21   1
    23     7    22   1
    24     7    23   1
    25    12    24   1
    26    12    25   1
    27    13    26   1
    28    14    27   1
    29    14    28   1
    30    14    29   1
    31    15    30   1
    32    15    31   1
    33    16    32   1
    34    16    33   1
    35    17    34   1
    36    18    35   1
    37    18    36   1
    38    18    37   1
@<TRIPOS>SUBSTRUCTURE
     1  SX3      2

