@<TRIPOS>MOLECULE
3cj2_ligand_049
    37    38
SMALL
GAST_HUCK
****
This file was generated by PARSER (from files_GN.cpp)

@<TRIPOS>ATOM
      1 BR1       -32.6454   21.2359  -10.1249 Br          1 SX3      -0.0605
      2 C11       -31.4248   19.9978   -9.4661 C.ar        1 SX3       0.0047
      3 C10       -31.0149   18.9099  -10.2640 C.ar        1 SX3      -0.0437
      4 C12       -30.9061   20.1492   -8.1716 C.ar        1 SX3      -0.0597
      5 C13       -29.9645   19.2377   -7.6770 C.ar        1 SX3      -0.0356
      6 C14       -29.5520   18.1465   -8.4685 C.ar        1 SX3       0.0599
      7 N2        -28.6355   17.3157   -7.9374 N.pl3       1 SX3      -0.3308
      8 C9        -30.1052   17.9423   -9.7656 C.ar        1 SX3       0.0698
      9 C8        -29.7328   16.8601  -10.5643 C.2         1 SX3       0.1999
     10 O1        -28.5243   16.7968  -10.7689 O.2         1 SX3      -0.3919
     11 N1        -30.5585   15.9389  -11.1076 N.am        1 SX3      -0.2741
     12 C6        -31.9902   15.8606  -10.8386 C.3         1 SX3       0.0356
     13 C4        -32.3901   14.5111  -10.1697 C.3         1 SX3      -0.0232
     14 C5        -32.0786   14.5089   -8.6458 C.3         1 SX3      -0.0606
     15 C3        -31.7846   13.3031  -10.9484 C.3         1 SX3      -0.0442
     16 C7        -30.0610   14.8858  -11.9901 C.3         1 SX3       0.0356
     17 C2        -30.2931   13.4661  -11.3849 C.3         1 SX3      -0.0232
     18 C1        -29.2655   13.1267  -10.2699 C.3         1 SX3      -0.0606
     19 H1        -31.3831   18.8357  -11.2134 H           1 SX3       0.0663
     20 H2        -31.1979   20.9392   -7.5875 H           1 SX3       0.0644
     21 H3        -29.5803   19.3632   -6.7368 H           1 SX3       0.0535
     22 H4        -28.3131   17.4730   -7.0411 H           1 SX3       0.1755
     23 H5        -28.3208   16.5428   -8.4308 H           1 SX3       0.1755
     24 H6        -32.5206   15.9607  -11.7915 H           1 SX3       0.0524
     25 H7        -32.3659   16.6599  -10.2016 H           1 SX3       0.0524
     26 H8        -33.4812   14.4282  -10.2473 H           1 SX3       0.0318
     27 H9        -32.2744   13.5264   -8.2207 H           1 SX3       0.0233
     28 H10       -32.7196   15.2320   -8.1334 H           1 SX3       0.0233
     29 H11       -31.0455   14.7796   -8.4479 H           1 SX3       0.0233
     30 H12       -32.3744   13.1850  -11.8614 H           1 SX3       0.0272
     31 H13       -31.9109   12.3799  -10.3776 H           1 SX3       0.0272
     32 H14       -29.0075   14.9887  -12.2513 H           1 SX3       0.0524
     33 H15       -30.5987   14.9463  -12.9431 H           1 SX3       0.0524
     34 H16       -30.1141   12.7335  -12.1830 H           1 SX3       0.0318
     35 H17       -29.5149   12.1796   -9.7881 H           1 SX3       0.0233
     36 H18       -29.2281   13.9049   -9.5104 H           1 SX3       0.0233
     37 H19       -28.2700   13.0319  -10.7059 H           1 SX3       0.0233
@<TRIPOS>BOND
     1     1     2   1
     2     2     3  ar
     3     2     4  ar
     4     3     8  ar
     5     4     5  ar
     6     5     6  ar
     7     6     7   1
     8     6     8  ar
     9     8     9   1
    10     9    10   2
    11     9    11  am
    12    11    12   1
    13    11    16   1
    14    12    13   1
    15    13    14   1
    16    13    15   1
    17    15    17   1
    18    16    17   1
    19    17    18   1
    20     3    19   1
    21     4    20   1
    22     5    21   1
    23     7    22   1
    24     7    23   1
    25    12    24   1
    26    12    25   1
    27    13    26   1
    28    14    27   1
    29    14    28   1
    30    14    29   1
    31    15    30   1
    32    15    31   1
    33    16    32   1
    34    16    33   1
    35    17    34   1
    36    18    35   1
    37    18    36   1
    38    18    37   1
@<TRIPOS>SUBSTRUCTURE
     1  SX3      2

