@<TRIPOS>MOLECULE
3cj2_ligand_092
    37    38
SMALL
GAST_HUCK
****
This file was generated by PARSER (from files_GN.cpp)

@<TRIPOS>ATOM
      1 BR1       -22.0986   -2.6049  -24.0792 Br          1 SX3      -0.0605
      2 C11       -21.4347   -1.9824  -22.4562 C.ar        1 SX3       0.0047
      3 C10       -20.4737   -0.9563  -22.4348 C.ar        1 SX3      -0.0437
      4 C12       -21.8954   -2.5357  -21.2490 C.ar        1 SX3      -0.0597
      5 C13       -21.4046   -2.0564  -20.0209 C.ar        1 SX3      -0.0356
      6 C14       -20.4413   -1.0258  -19.9924 C.ar        1 SX3       0.0599
      7 N2        -19.9983   -0.5960  -18.7951 N.pl3       1 SX3      -0.3308
      8 C9        -19.9643   -0.4721  -21.2076 C.ar        1 SX3       0.0698
      9 C8        -19.0100    0.5328  -21.2370 C.2         1 SX3       0.1999
     10 O1        -17.8827    0.1236  -21.4887 O.2         1 SX3      -0.3919
     11 N1        -19.2596    1.8421  -21.0416 N.am        1 SX3      -0.2741
     12 C6        -20.5709    2.3725  -20.6907 C.3         1 SX3       0.0356
     13 C4        -20.5018    3.1805  -19.3589 C.3         1 SX3      -0.0232
     14 C5        -21.8765    3.7856  -18.9710 C.3         1 SX3      -0.0606
     15 C3        -19.4041    4.2821  -19.4540 C.3         1 SX3      -0.0442
     16 C7        -18.2218    2.8507  -21.2037 C.3         1 SX3       0.0356
     17 C2        -18.0377    3.6895  -19.9057 C.3         1 SX3      -0.0232
     18 C1        -16.9631    4.7958  -20.0836 C.3         1 SX3      -0.0606
     19 H1        -20.1517   -0.5602  -23.3222 H           1 SX3       0.0663
     20 H2        -22.5883   -3.2868  -21.2624 H           1 SX3       0.0644
     21 H3        -21.7445   -2.4734  -19.1497 H           1 SX3       0.0535
     22 H4        -20.3426   -1.0019  -17.9867 H           1 SX3       0.1755
     23 H5        -19.3381    0.1133  -18.7327 H           1 SX3       0.1755
     24 H6        -21.3407    1.6060  -20.5845 H           1 SX3       0.0524
     25 H7        -20.9050    3.0230  -21.5014 H           1 SX3       0.0524
     26 H8        -20.2172    2.4858  -18.5610 H           1 SX3       0.0318
     27 H9        -21.7946    4.3287  -18.0274 H           1 SX3       0.0233
     28 H10       -22.6172    2.9925  -18.8463 H           1 SX3       0.0233
     29 H11       -22.2265    4.4774  -19.7397 H           1 SX3       0.0233
     30 H12       -19.2848    4.7616  -18.4781 H           1 SX3       0.0272
     31 H13       -19.7185    5.0493  -20.1675 H           1 SX3       0.0272
     32 H14       -18.5167    3.5115  -22.0215 H           1 SX3       0.0524
     33 H15       -17.2503    2.4338  -21.4821 H           1 SX3       0.0524
     34 H16       -17.6882    3.0136  -19.1200 H           1 SX3       0.0318
     35 H17       -16.8403    5.3567  -19.1543 H           1 SX3       0.0233
     36 H18       -17.2495    5.4909  -20.8768 H           1 SX3       0.0233
     37 H19       -16.0009    4.3479  -20.3427 H           1 SX3       0.0233
@<TRIPOS>BOND
     1     1     2   1
     2     2     3  ar
     3     2     4  ar
     4     3     8  ar
     5     4     5  ar
     6     5     6  ar
     7     6     7   1
     8     6     8  ar
     9     8     9   1
    10     9    10   2
    11     9    11  am
    12    11    12   1
    13    11    16   1
    14    12    13   1
    15    13    14   1
    16    13    15   1
    17    15    17   1
    18    16    17   1
    19    17    18   1
    20     3    19   1
    21     4    20   1
    22     5    21   1
    23     7    22   1
    24     7    23   1
    25    12    24   1
    26    12    25   1
    27    13    26   1
    28    14    27   1
    29    14    28   1
    30    14    29   1
    31    15    30   1
    32    15    31   1
    33    16    32   1
    34    16    33   1
    35    17    34   1
    36    18    35   1
    37    18    36   1
    38    18    37   1
@<TRIPOS>SUBSTRUCTURE
     1  SX3      2

