@<TRIPOS>MOLECULE
3cj2_ligand_023
    37    38
SMALL
GAST_HUCK
****
This file was generated by PARSER (from files_GN.cpp)

@<TRIPOS>ATOM
      1 BR1       -19.7350    1.0812  -19.6067 Br          1 SX3      -0.0605
      2 C11       -20.3164    2.8344  -19.3680 C.ar        1 SX3       0.0047
      3 C10       -21.6571    3.1026  -19.0226 C.ar        1 SX3      -0.0437
      4 C12       -19.4153    3.8963  -19.5366 C.ar        1 SX3      -0.0597
      5 C13       -19.8649    5.2218  -19.4171 C.ar        1 SX3      -0.0356
      6 C14       -21.2160    5.4976  -19.1081 C.ar        1 SX3       0.0599
      7 N2        -21.6042    6.7872  -19.0884 N.pl3       1 SX3      -0.3308
      8 C9        -22.1258    4.4328  -18.8536 C.ar        1 SX3       0.0698
      9 C8        -23.4675    4.6328  -18.5075 C.2         1 SX3       0.1999
     10 O1        -24.2544    4.1367  -19.3073 O.2         1 SX3      -0.3919
     11 N1        -23.9282    5.2619  -17.3991 N.am        1 SX3      -0.2741
     12 C6        -23.0796    5.8200  -16.3572 C.3         1 SX3       0.0356
     13 C4        -23.3771    7.3346  -16.1418 C.3         1 SX3      -0.0232
     14 C5        -22.4710    7.9656  -15.0517 C.3         1 SX3      -0.0606
     15 C3        -24.8896    7.5292  -15.8251 C.3         1 SX3      -0.0442
     16 C7        -25.3574    5.3629  -17.1122 C.3         1 SX3       0.0356
     17 C2        -25.7865    6.8452  -16.9001 C.3         1 SX3      -0.0232
     18 C1        -27.2881    6.9563  -16.5268 C.3         1 SX3      -0.0606
     19 H1        -22.2872    2.3116  -18.8750 H           1 SX3       0.0663
     20 H2        -18.4385    3.7072  -19.7553 H           1 SX3       0.0644
     21 H3        -19.2023    5.9852  -19.5629 H           1 SX3       0.0535
     22 H4        -20.9652    7.4945  -19.2722 H           1 SX3       0.1755
     23 H5        -22.5328    7.0129  -18.9208 H           1 SX3       0.1755
     24 H6        -22.0152    5.6895  -16.5411 H           1 SX3       0.0524
     25 H7        -23.2746    5.2908  -15.4220 H           1 SX3       0.0524
     26 H8        -23.1663    7.8666  -17.0741 H           1 SX3       0.0318
     27 H9        -22.6931    9.0299  -14.9364 H           1 SX3       0.0233
     28 H10       -21.4200    7.8672  -15.3353 H           1 SX3       0.0233
     29 H11       -22.6197    7.4726  -14.0876 H           1 SX3       0.0233
     30 H12       -25.1225    8.5986  -15.7905 H           1 SX3       0.0272
     31 H13       -25.1107    7.1012  -14.8407 H           1 SX3       0.0272
     32 H14       -25.5697    4.7877  -16.2032 H           1 SX3       0.0524
     33 H15       -25.9868    4.9379  -17.9000 H           1 SX3       0.0524
     34 H16       -25.6409    7.3705  -17.8512 H           1 SX3       0.0318
     35 H17       -27.5704    8.0048  -16.4171 H           1 SX3       0.0233
     36 H18       -27.4874    6.4387  -15.5868 H           1 SX3       0.0233
     37 H19       -27.9074    6.5138  -17.3091 H           1 SX3       0.0233
@<TRIPOS>BOND
     1     1     2   1
     2     2     3  ar
     3     2     4  ar
     4     3     8  ar
     5     4     5  ar
     6     5     6  ar
     7     6     7   1
     8     6     8  ar
     9     8     9   1
    10     9    10   2
    11     9    11  am
    12    11    12   1
    13    11    16   1
    14    12    13   1
    15    13    14   1
    16    13    15   1
    17    15    17   1
    18    16    17   1
    19    17    18   1
    20     3    19   1
    21     4    20   1
    22     5    21   1
    23     7    22   1
    24     7    23   1
    25    12    24   1
    26    12    25   1
    27    13    26   1
    28    14    27   1
    29    14    28   1
    30    14    29   1
    31    15    30   1
    32    15    31   1
    33    16    32   1
    34    16    33   1
    35    17    34   1
    36    18    35   1
    37    18    36   1
    38    18    37   1
@<TRIPOS>SUBSTRUCTURE
     1  SX3      2

