@<TRIPOS>MOLECULE
3cj2_ligand_078
    37    38
SMALL
GAST_HUCK
****
This file was generated by PARSER (from files_GN.cpp)

@<TRIPOS>ATOM
      1 BR1       -18.3183    1.3388  -24.8795 Br          1 SX3      -0.0605
      2 C11       -18.6880    1.0047  -23.0871 C.ar        1 SX3       0.0047
      3 C10       -18.5512    2.0319  -22.1356 C.ar        1 SX3      -0.0437
      4 C12       -19.1271   -0.2687  -22.6842 C.ar        1 SX3      -0.0597
      5 C13       -19.4358   -0.5121  -21.3353 C.ar        1 SX3      -0.0356
      6 C14       -19.3063    0.5117  -20.3752 C.ar        1 SX3       0.0599
      7 N2        -19.5875    0.2065  -19.0916 N.pl3       1 SX3      -0.3308
      8 C9        -18.8795    1.8094  -20.7761 C.ar        1 SX3       0.0698
      9 C8        -18.8031    2.8683  -19.8694 C.2         1 SX3       0.1999
     10 O1        -17.6891    3.3763  -19.7819 O.2         1 SX3      -0.3919
     11 N1        -19.8309    3.3017  -19.1064 N.am        1 SX3      -0.2741
     12 C6        -19.6399    4.2109  -17.9882 C.3         1 SX3       0.0356
     13 C4        -20.4510    5.5259  -18.1767 C.3         1 SX3      -0.0232
     14 C5        -20.2597    6.4897  -16.9750 C.3         1 SX3      -0.0606
     15 C3        -21.9527    5.1912  -18.4088 C.3         1 SX3      -0.0442
     16 C7        -21.2203    2.8866  -19.3086 C.3         1 SX3       0.0356
     17 C2        -22.1680    4.1044  -19.5068 C.3         1 SX3      -0.0232
     18 C1        -23.6536    3.6564  -19.5651 C.3         1 SX3      -0.0606
     19 H1        -18.2360    2.9541  -22.4490 H           1 SX3       0.0663
     20 H2        -19.2243   -1.0193  -23.3703 H           1 SX3       0.0644
     21 H3        -19.7567   -1.4440  -21.0551 H           1 SX3       0.0535
     22 H4        -19.9217   -0.6736  -18.8612 H           1 SX3       0.1755
     23 H5        -19.4668    0.8683  -18.3905 H           1 SX3       0.1755
     24 H6        -18.5940    4.4849  -17.8253 H           1 SX3       0.0524
     25 H7        -19.9722    3.7043  -17.0777 H           1 SX3       0.0524
     26 H8        -20.0677    6.0341  -19.0680 H           1 SX3       0.0318
     27 H9        -20.7306    7.4525  -17.1876 H           1 SX3       0.0233
     28 H10       -19.1958    6.6617  -16.7890 H           1 SX3       0.0233
     29 H11       -20.7021    6.0722  -16.0670 H           1 SX3       0.0233
     30 H12       -22.4873    6.1012  -18.7006 H           1 SX3       0.0272
     31 H13       -22.3807    4.8420  -17.4662 H           1 SX3       0.0272
     32 H14       -21.5419    2.3167  -18.4353 H           1 SX3       0.0524
     33 H15       -21.3494    2.2382  -20.1790 H           1 SX3       0.0524
     34 H16       -21.9300    4.5595  -20.4708 H           1 SX3       0.0318
     35 H17       -24.3000    4.5171  -19.7480 H           1 SX3       0.0233
     36 H18       -23.9546    3.1892  -18.6240 H           1 SX3       0.0233
     37 H19       -23.8030    2.9383  -20.3730 H           1 SX3       0.0233
@<TRIPOS>BOND
     1     1     2   1
     2     2     3  ar
     3     2     4  ar
     4     3     8  ar
     5     4     5  ar
     6     5     6  ar
     7     6     7   1
     8     6     8  ar
     9     8     9   1
    10     9    10   2
    11     9    11  am
    12    11    12   1
    13    11    16   1
    14    12    13   1
    15    13    14   1
    16    13    15   1
    17    15    17   1
    18    16    17   1
    19    17    18   1
    20     3    19   1
    21     4    20   1
    22     5    21   1
    23     7    22   1
    24     7    23   1
    25    12    24   1
    26    12    25   1
    27    13    26   1
    28    14    27   1
    29    14    28   1
    30    14    29   1
    31    15    30   1
    32    15    31   1
    33    16    32   1
    34    16    33   1
    35    17    34   1
    36    18    35   1
    37    18    36   1
    38    18    37   1
@<TRIPOS>SUBSTRUCTURE
     1  SX3      2

