@<TRIPOS>MOLECULE
3coy_ligand_026
    57    59
SMALL
GAST_HUCK
****
This file was generated by PARSER (from files_GN.cpp)

@<TRIPOS>ATOM
      1 C1         16.4874    9.2882    6.4708 C.2         1 MOL       0.2465
      2 C2         21.6782   13.1575    1.3337 C.ar        1 MOL       0.0533
      3 C3         15.8434    8.7802    7.6818 C.3         1 MOL       0.0714
      4 C4         23.1993   12.1286    2.8011 C.ar        1 MOL       0.1613
      5 C5         24.0948   13.1853    2.6409 C.ar        1 MOL       0.1045
      6 C6         23.7390   14.2557    1.8044 C.ar        1 MOL       0.1298
      7 C7         14.2618    8.6971    7.6387 C.3         1 MOL       0.0226
      8 N1         22.5348   14.2042    1.1711 N.ar        1 MOL      -0.2698
      9 N2         16.7800    8.4786    5.4609 N.am        1 MOL      -0.1294
     10 O1         16.7316   10.4899    6.4034 O.2         1 MOL      -0.3891
     11 C8         24.9846   11.7369    3.9597 C.2         1 MOL       0.1123
     12 O2         23.2369    9.6919    6.5462 O.3         1 MOL      -0.3836
     13 N3         22.0041   12.1201    2.1517 N.ar        1 MOL      -0.2714
     14 C9         13.6633    9.8963    6.8249 C.3         1 MOL      -0.0527
     15 C10        13.7564    7.3616    6.9999 C.3         1 MOL      -0.0527
     16 C11        13.6923    8.7842    9.0977 C.3         1 MOL      -0.0527
     17 N4         16.4848    7.5035    8.0545 N.4         1 MOL       0.2383
     18 S1         17.4638    8.9275    3.9846 S.o2        1 MOL       0.1859
     19 O1A        17.6694   10.6031    3.8134 O.2         1 MOL      -0.1218
     20 O2A        16.4316    8.3432    2.7752 O.2         1 MOL      -0.1218
     21 O5         18.9328    8.0974    3.7922 O.3         1 MOL      -0.2161
     22 C25        20.0331    8.5911    3.0207 C.3         1 MOL       0.1073
     23 C24        21.3250    8.6753    3.8676 C.3         1 MOL       0.1161
     24 C23        21.1392    9.3520    5.2449 C.3         1 MOL       0.1146
     25 O3         20.8828    8.3648    6.2502 O.3         1 MOL      -0.3864
     26 C22        22.4427   10.1578    5.4506 C.3         1 MOL       0.1385
     27 C21        23.2109    9.9993    4.1122 C.3         1 MOL       0.2010
     28 O4         22.2817    9.4662    3.1584 O.3         1 MOL      -0.3367
     29 N9         23.7709   11.2381    3.6335 N.pl3       1 MOL      -0.1919
     30 N7         25.1942   12.9283    3.3658 N.2         1 MOL      -0.2958
     31 N6         24.5462   15.3119    1.6115 N.pl3       1 MOL      -0.3152
     32 H1         20.7869   13.1488    0.8385 H           1 MOL       0.0996
     33 H2         16.0971    9.4657    8.4975 H           1 MOL       0.1104
     34 H3         16.5901    7.5340    5.5803 H           1 MOL       0.2167
     35 H4         25.6598   11.2863    4.5812 H           1 MOL       0.1349
     36 H5         22.6526    9.7577    7.3304 H           1 MOL       0.2101
     37 H6         12.5689    9.8904    6.8536 H           1 MOL       0.0238
     38 H7         13.9629    9.8456    5.7748 H           1 MOL       0.0238
     39 H8         14.0088   10.8503    7.2305 H           1 MOL       0.0238
     40 H9         14.1633    6.4933    7.5267 H           1 MOL       0.0238
     41 H10        14.0431    7.2920    5.9470 H           1 MOL       0.0238
     42 H11        12.6643    7.3014    7.0504 H           1 MOL       0.0238
     43 H12        14.0172    9.7069    9.5857 H           1 MOL       0.0238
     44 H13        14.0304    7.9413    9.7041 H           1 MOL       0.0238
     45 H14        12.5985    8.7734    9.0943 H           1 MOL       0.0238
     46 H15        17.4735    7.6755    8.2170 H           1 MOL       0.2015
     47 H16        16.3847    6.8192    7.3066 H           1 MOL       0.2015
     48 H17        16.0716    7.1206    8.9029 H           1 MOL       0.2015
     49 H18        19.8096    9.5786    2.6089 H           1 MOL       0.0611
     50 H19        20.1960    7.9071    2.1867 H           1 MOL       0.0611
     51 H20        21.7328    7.6680    3.9980 H           1 MOL       0.0648
     52 H21        20.2907   10.0424    5.2189 H           1 MOL       0.0648
     53 H22        20.3003    8.7819    6.9189 H           1 MOL       0.2100
     54 H23        22.1942   11.2128    5.6378 H           1 MOL       0.0676
     55 H24        24.0072    9.2527    4.2325 H           1 MOL       0.0996
     56 H25        24.2675   16.0362    1.0300 H           1 MOL       0.1820
     57 H26        25.4058   15.3535    2.0564 H           1 MOL       0.1820
@<TRIPOS>BOND
     1     1     3   1
     2     9     1  am
     3     1    10   2
     4     2     8  ar
     5    13     2  ar
     6     3     7   1
     7     3    17   1
     8     4     5  ar
     9     4    13  ar
    10    29     4   1
    11     5     6  ar
    12    30     5   1
    13     6     8  ar
    14     6    31   1
    15     7    14   1
    16     7    15   1
    17     7    16   1
    18    18     9  am
    19    29    11   1
    20    11    30   2
    21    26    12   1
    22    18    19   2
    23    18    20   2
    24    21    18   1
    25    22    21   1
    26    23    22   1
    27    23    24   1
    28    28    23   1
    29    24    25   1
    30    26    24   1
    31    27    26   1
    32    27    28   1
    33    27    29   1
    34     2    32   1
    35     3    33   1
    36     9    34   1
    37    11    35   1
    38    12    36   1
    39    14    37   1
    40    14    38   1
    41    14    39   1
    42    15    40   1
    43    15    41   1
    44    15    42   1
    45    16    43   1
    46    16    44   1
    47    16    45   1
    48    17    46   1
    49    17    47   1
    50    17    48   1
    51    22    49   1
    52    22    50   1
    53    23    51   1
    54    24    52   1
    55    25    53   1
    56    26    54   1
    57    27    55   1
    58    31    56   1
    59    31    57   1
@<TRIPOS>SUBSTRUCTURE
     1  MOL      1

