@<TRIPOS>MOLECULE
3coy_ligand_002
    57    59
SMALL
GAST_HUCK
****
This file was generated by PARSER (from files_GN.cpp)

@<TRIPOS>ATOM
      1 C1         17.0947    9.8963    4.6400 C.2         1 MOL       0.2465
      2 C2         13.2664    8.4351   -4.7232 C.ar        1 MOL       0.0533
      3 C3         17.3760    8.4897    4.9329 C.3         1 MOL       0.0714
      4 C4         13.9427    9.7578   -2.8991 C.ar        1 MOL       0.1613
      5 C5         14.9104   10.3815   -3.6846 C.ar        1 MOL       0.1045
      6 C6         15.0213   10.0185   -5.0385 C.ar        1 MOL       0.1298
      7 C7         18.8169    7.9837    4.5082 C.3         1 MOL       0.0226
      8 N1         14.1837    9.0582   -5.5133 N.ar        1 MOL      -0.2698
      9 N2         16.7141   10.2320    3.4153 N.am        1 MOL      -0.1294
     10 O1         17.2732   10.7433    5.5069 O.2         1 MOL      -0.3891
     11 C8         15.0300   11.1827   -1.6943 C.2         1 MOL       0.1123
     12 O2         14.1039    7.6250   -0.1156 O.3         1 MOL      -0.3836
     13 N3         13.1414    8.7896   -3.4152 N.ar        1 MOL      -0.2714
     14 C9         19.2117    8.5172    3.0899 C.3         1 MOL      -0.0527
     15 C10        19.9057    8.4392    5.5324 C.3         1 MOL      -0.0527
     16 C11        18.8257    6.4199    4.4316 C.3         1 MOL      -0.0527
     17 N4         17.0538    8.1821    6.3452 N.4         1 MOL       0.2383
     18 S1         16.4074   11.7812    2.8222 S.o2        1 MOL       0.1859
     19 O1A        17.6678   12.2282    1.7954 O.2         1 MOL      -0.1218
     20 O2A        16.2535   12.8780    4.0946 O.2         1 MOL      -0.1218
     21 O5         14.9830   11.7446    1.9118 O.3         1 MOL      -0.2161
     22 C25        13.6777   11.6048    2.4702 C.3         1 MOL       0.1073
     23 C24        12.8306   10.5929    1.6635 C.3         1 MOL       0.1161
     24 C23        13.3341    9.1264    1.7386 C.3         1 MOL       0.1146
     25 O3         12.2276    8.2241    1.8291 O.3         1 MOL      -0.3864
     26 C22        14.0668    8.9552    0.4006 C.3         1 MOL       0.1385
     27 C21        13.2541    9.8852   -0.5153 C.3         1 MOL       0.2010
     28 O4         12.8434   11.0002    0.2847 O.3         1 MOL      -0.3367
     29 N9         14.0227   10.2786   -1.6636 N.pl3       1 MOL      -0.1919
     30 N7         15.5749   11.2616   -2.9239 N.2         1 MOL      -0.2958
     31 N6         15.9130   10.5937   -5.8612 N.pl3       1 MOL      -0.3152
     32 H1         12.6665    7.7066   -5.1130 H           1 MOL       0.0996
     33 H2         16.6447    7.9034    4.3672 H           1 MOL       0.1104
     34 H3         16.6359    9.5058    2.7691 H           1 MOL       0.2167
     35 H4         15.3576   11.7331   -0.8950 H           1 MOL       0.1349
     36 H5         15.0139    7.3006    0.0614 H           1 MOL       0.2101
     37 H6         20.1469    8.0719    2.7472 H           1 MOL       0.0238
     38 H7         19.3499    9.6004    3.1028 H           1 MOL       0.0238
     39 H8         18.4355    8.2830    2.3592 H           1 MOL       0.0238
     40 H9         19.7314    7.9996    6.5167 H           1 MOL       0.0238
     41 H10        19.9051    9.5238    5.6413 H           1 MOL       0.0238
     42 H11        20.9011    8.1335    5.2084 H           1 MOL       0.0238
     43 H12        18.0783    6.0605    3.7166 H           1 MOL       0.0238
     44 H13        18.6070    5.9725    5.4029 H           1 MOL       0.0238
     45 H14        19.8009    6.0473    4.1083 H           1 MOL       0.0238
     46 H15        16.1539    8.5981    6.5973 H           1 MOL       0.2015
     47 H16        17.7784    8.5413    6.9744 H           1 MOL       0.2015
     48 H17        16.9871    7.1691    6.4464 H           1 MOL       0.2015
     49 H18        13.1932   12.5822    2.4218 H           1 MOL       0.0611
     50 H19        13.7234   11.3027    3.5206 H           1 MOL       0.0611
     51 H20        11.8025   10.6519    2.0355 H           1 MOL       0.0648
     52 H21        14.0042    8.9450    2.5867 H           1 MOL       0.0648
     53 H22        11.8231    8.4068    2.7082 H           1 MOL       0.2100
     54 H23        15.0944    9.3171    0.5008 H           1 MOL       0.0676
     55 H24        12.3377    9.3743   -0.8345 H           1 MOL       0.0996
     56 H25        15.9348   10.3508   -6.8040 H           1 MOL       0.1820
     57 H26        16.5497   11.2424   -5.5221 H           1 MOL       0.1820
@<TRIPOS>BOND
     1     1     3   1
     2     9     1  am
     3     1    10   2
     4     2     8  ar
     5    13     2  ar
     6     3     7   1
     7     3    17   1
     8     4     5  ar
     9     4    13  ar
    10    29     4   1
    11     5     6  ar
    12    30     5   1
    13     6     8  ar
    14     6    31   1
    15     7    14   1
    16     7    15   1
    17     7    16   1
    18    18     9  am
    19    29    11   1
    20    11    30   2
    21    26    12   1
    22    18    19   2
    23    18    20   2
    24    21    18   1
    25    22    21   1
    26    23    22   1
    27    23    24   1
    28    28    23   1
    29    24    25   1
    30    26    24   1
    31    27    26   1
    32    27    28   1
    33    27    29   1
    34     2    32   1
    35     3    33   1
    36     9    34   1
    37    11    35   1
    38    12    36   1
    39    14    37   1
    40    14    38   1
    41    14    39   1
    42    15    40   1
    43    15    41   1
    44    15    42   1
    45    16    43   1
    46    16    44   1
    47    16    45   1
    48    17    46   1
    49    17    47   1
    50    17    48   1
    51    22    49   1
    52    22    50   1
    53    23    51   1
    54    24    52   1
    55    25    53   1
    56    26    54   1
    57    27    55   1
    58    31    56   1
    59    31    57   1
@<TRIPOS>SUBSTRUCTURE
     1  MOL      1

