@<TRIPOS>MOLECULE
3coy_ligand_043
    57    59
SMALL
GAST_HUCK
****
This file was generated by PARSER (from files_GN.cpp)

@<TRIPOS>ATOM
      1 C1         14.1590    9.4510    4.5057 C.2         1 MOL       0.2465
      2 C2         22.5838    8.7108    3.5751 C.ar        1 MOL       0.0533
      3 C3         13.3862    8.7150    5.5074 C.3         1 MOL       0.0714
      4 C4         22.0287   10.6924    2.4099 C.ar        1 MOL       0.1613
      5 C5         23.2210   11.2788    2.8241 C.ar        1 MOL       0.1045
      6 C6         24.1094   10.5315    3.6144 C.ar        1 MOL       0.1298
      7 C7         13.7675    9.0427    7.0107 C.3         1 MOL       0.0226
      8 N1         23.7655    9.2612    3.9669 N.ar        1 MOL      -0.2698
      9 N2         13.8934   10.7211    4.2288 N.am        1 MOL      -0.1294
     10 O1         15.0908    8.8797    3.9505 O.2         1 MOL      -0.3891
     11 C8         22.1597   12.6934    1.6120 C.2         1 MOL       0.1123
     12 O2         18.7163    9.8963   -0.3251 O.3         1 MOL      -0.3836
     13 N3         21.7270    9.4277    2.8027 N.ar        1 MOL      -0.2714
     14 C9         13.5124   10.5382    7.3908 C.3         1 MOL      -0.0527
     15 C10        12.9297    8.1424    7.9809 C.3         1 MOL      -0.0527
     16 C11        15.2799    8.7193    7.2659 C.3         1 MOL      -0.0527
     17 N4         11.9460    8.8597    5.2061 N.4         1 MOL       0.2383
     18 S1         14.8254   11.7036    3.2269 S.o2        1 MOL       0.1859
     19 O1A        14.2088   13.2737    3.1402 O.2         1 MOL      -0.1218
     20 O2A        14.8489   11.0739    1.6580 O.2         1 MOL      -0.1218
     21 O5         16.4152   11.7347    3.8141 O.3         1 MOL      -0.2161
     22 C25        17.5148   12.4386    3.2350 C.3         1 MOL       0.1073
     23 C24        18.0389   11.7820    1.9361 C.3         1 MOL       0.1161
     24 C23        18.4011   10.2908    2.0699 C.3         1 MOL       0.1146
     25 O3         17.2697    9.4327    1.9643 O.3         1 MOL      -0.3864
     26 C22        19.3925   10.1221    0.9128 C.3         1 MOL       0.1385
     27 C21        20.1320   11.4876    0.9163 C.3         1 MOL       0.2010
     28 O4         19.2374   12.4437    1.5152 O.3         1 MOL      -0.3367
     29 N9         21.3822   11.5846    1.6310 N.pl3       1 MOL      -0.1919
     30 N7         23.2829   12.5217    2.3285 N.2         1 MOL      -0.2958
     31 N6         25.2832   11.0369    4.0164 N.pl3       1 MOL      -0.3152
     32 H1         22.3366    7.7536    3.8493 H           1 MOL       0.0996
     33 H2         13.5806    7.6454    5.3625 H           1 MOL       0.1104
     34 H3         13.1250   11.1318    4.6536 H           1 MOL       0.2167
     35 H4         21.9403   13.5575    1.1110 H           1 MOL       0.1349
     36 H5         18.2368    9.0450   -0.2062 H           1 MOL       0.2101
     37 H6         13.7030   10.7069    8.4535 H           1 MOL       0.0238
     38 H7         12.4796   10.8181    7.1860 H           1 MOL       0.0238
     39 H8         14.1665   11.2091    6.8316 H           1 MOL       0.0238
     40 H9         13.0784    7.0840    7.7548 H           1 MOL       0.0238
     41 H10        11.8634    8.3603    7.9031 H           1 MOL       0.0238
     42 H11        13.2211    8.3077    9.0211 H           1 MOL       0.0238
     43 H12        15.9261    9.3617    6.6644 H           1 MOL       0.0238
     44 H13        15.5024    7.6806    7.0106 H           1 MOL       0.0238
     45 H14        15.5447    8.8736    8.3149 H           1 MOL       0.0238
     46 H15        11.7555    8.4841    4.2747 H           1 MOL       0.2015
     47 H16        11.6690    9.8390    5.2253 H           1 MOL       0.2015
     48 H17        11.3880    8.3472    5.8884 H           1 MOL       0.2015
     49 H18        18.3183   12.4505    3.9730 H           1 MOL       0.0611
     50 H19        17.2262   13.4742    3.0423 H           1 MOL       0.0611
     51 H20        17.2971   11.9132    1.1440 H           1 MOL       0.0648
     52 H21        18.9001   10.1023    3.0249 H           1 MOL       0.0648
     53 H22        17.6246    8.5225    2.0466 H           1 MOL       0.2100
     54 H23        20.0461    9.2664    1.0463 H           1 MOL       0.0676
     55 H24        20.3133   11.7833   -0.1220 H           1 MOL       0.0996
     56 H25        25.8878   10.4992    4.5497 H           1 MOL       0.1820
     57 H26        25.5302   11.9400    3.7721 H           1 MOL       0.1820
@<TRIPOS>BOND
     1     1     3   1
     2     9     1  am
     3     1    10   2
     4     2     8  ar
     5    13     2  ar
     6     3     7   1
     7     3    17   1
     8     4     5  ar
     9     4    13  ar
    10    29     4   1
    11     5     6  ar
    12    30     5   1
    13     6     8  ar
    14     6    31   1
    15     7    14   1
    16     7    15   1
    17     7    16   1
    18    18     9  am
    19    29    11   1
    20    11    30   2
    21    26    12   1
    22    18    19   2
    23    18    20   2
    24    21    18   1
    25    22    21   1
    26    23    22   1
    27    23    24   1
    28    28    23   1
    29    24    25   1
    30    26    24   1
    31    27    26   1
    32    27    28   1
    33    27    29   1
    34     2    32   1
    35     3    33   1
    36     9    34   1
    37    11    35   1
    38    12    36   1
    39    14    37   1
    40    14    38   1
    41    14    39   1
    42    15    40   1
    43    15    41   1
    44    15    42   1
    45    16    43   1
    46    16    44   1
    47    16    45   1
    48    17    46   1
    49    17    47   1
    50    17    48   1
    51    22    49   1
    52    22    50   1
    53    23    51   1
    54    24    52   1
    55    25    53   1
    56    26    54   1
    57    27    55   1
    58    31    56   1
    59    31    57   1
@<TRIPOS>SUBSTRUCTURE
     1  MOL      1

