@<TRIPOS>MOLECULE
3coy_ligand_069
    57    59
SMALL
GAST_HUCK
****
This file was generated by PARSER (from files_GN.cpp)

@<TRIPOS>ATOM
      1 C1         14.3452    9.1819    8.4568 C.2         1 MOL       0.2465
      2 C2         12.6624   10.1928   -4.3952 C.ar        1 MOL       0.0533
      3 C3         13.8923    9.9486    9.6229 C.3         1 MOL       0.0714
      4 C4         14.1206   10.5467   -2.5724 C.ar        1 MOL       0.1613
      5 C5         15.2090   10.5289   -3.4391 C.ar        1 MOL       0.1045
      6 C6         14.9983   10.3412   -4.8160 C.ar        1 MOL       0.1298
      7 C7         13.7374   11.5262    9.4679 C.3         1 MOL       0.0226
      8 N1         13.7198   10.1807   -5.2516 N.ar        1 MOL      -0.2698
      9 N2         13.7169    9.2756    7.2921 N.am        1 MOL      -0.1294
     10 O1         15.3638    8.5035    8.5628 O.2         1 MOL      -0.3891
     11 C8         15.9323   10.8891   -1.4539 C.2         1 MOL       0.1123
     12 O2         11.5975   11.7153   -0.2351 O.3         1 MOL      -0.3836
     13 N3         12.8654   10.3865   -3.0639 N.ar        1 MOL      -0.2714
     14 C9         12.3773   11.9445    8.8142 C.3         1 MOL      -0.0527
     15 C10        13.7926   12.1965   10.8851 C.3         1 MOL      -0.0527
     16 C11        14.9088   12.1256    8.6211 C.3         1 MOL      -0.0527
     17 N4         12.6775    9.2890   10.1341 N.4         1 MOL       0.2383
     18 S1         14.2129    8.5857    5.8369 S.o2        1 MOL       0.1859
     19 O1A        13.5445    7.0355    5.7668 O.2         1 MOL      -0.1218
     20 O2A        15.8869    8.3566    5.7700 O.2         1 MOL      -0.1218
     21 O5         13.6965    9.4724    4.4849 O.3         1 MOL      -0.2161
     22 C25        14.1182    9.1501    3.1559 C.3         1 MOL       0.1073
     23 C24        13.6839   10.2252    2.1174 C.3         1 MOL       0.1161
     24 C23        12.2622   10.0885    1.5213 C.3         1 MOL       0.1146
     25 O3         11.2861   10.7687    2.3066 O.3         1 MOL      -0.3864
     26 C22        12.4132   10.5876    0.0647 C.3         1 MOL       0.1385
     27 C21        13.9108   10.9508   -0.0637 C.3         1 MOL       0.2010
     28 O4         14.5326   10.1593    0.9588 O.3         1 MOL      -0.3367
     29 N9         14.5879   10.7677   -1.3282 N.pl3       1 MOL      -0.1919
     30 N7         16.3217   10.7361   -2.7300 N.2         1 MOL      -0.2958
     31 N6         16.0075   10.3328   -5.7042 N.pl3       1 MOL      -0.3152
     32 H1         11.7145   10.0739   -4.7561 H           1 MOL       0.0996
     33 H2         14.6347    9.7796   10.4052 H           1 MOL       0.1104
     34 H3         12.9302    9.8204    7.2436 H           1 MOL       0.2167
     35 H4         16.5825   11.0783   -0.6847 H           1 MOL       0.1349
     36 H5         11.7676   11.9245   -1.1754 H           1 MOL       0.2101
     37 H6         12.2837   13.0260    8.7581 H           1 MOL       0.0238
     38 H7         11.5280   11.5698    9.3879 H           1 MOL       0.0238
     39 H8         12.2750   11.5859    7.8048 H           1 MOL       0.0238
     40 H9         14.7480   11.9992   11.3776 H           1 MOL       0.0238
     41 H10        13.0004   11.8189   11.5299 H           1 MOL       0.0238
     42 H11        13.6811   13.2805   10.8123 H           1 MOL       0.0238
     43 H12        14.8672   11.7824    7.5848 H           1 MOL       0.0238
     44 H13        15.8665   11.8203    9.0391 H           1 MOL       0.0238
     45 H14        14.8750   13.2118    8.5994 H           1 MOL       0.0238
     46 H15        12.8757    8.3046   10.3281 H           1 MOL       0.2015
     47 H16        11.9270    9.3484    9.4419 H           1 MOL       0.2015
     48 H17        12.3794    9.7412   10.9998 H           1 MOL       0.2015
     49 H18        13.7616    8.1626    2.8682 H           1 MOL       0.0611
     50 H19        15.2065    9.1114    3.1518 H           1 MOL       0.0611
     51 H20        13.8045   11.2207    2.5731 H           1 MOL       0.0648
     52 H21        11.9699    9.0342    1.4864 H           1 MOL       0.0648
     53 H22        11.6031   11.6889    2.4064 H           1 MOL       0.2100
     54 H23        12.1635    9.7640   -0.6081 H           1 MOL       0.0676
     55 H24        14.0428   12.0064    0.1974 H           1 MOL       0.0996
     56 H25        15.8329   10.2230   -6.6582 H           1 MOL       0.1820
     57 H26        16.9195   10.4739   -5.4076 H           1 MOL       0.1820
@<TRIPOS>BOND
     1     1     3   1
     2     9     1  am
     3     1    10   2
     4     2     8  ar
     5    13     2  ar
     6     3     7   1
     7     3    17   1
     8     4     5  ar
     9     4    13  ar
    10    29     4   1
    11     5     6  ar
    12    30     5   1
    13     6     8  ar
    14     6    31   1
    15     7    14   1
    16     7    15   1
    17     7    16   1
    18    18     9  am
    19    29    11   1
    20    11    30   2
    21    26    12   1
    22    18    19   2
    23    18    20   2
    24    21    18   1
    25    22    21   1
    26    23    22   1
    27    23    24   1
    28    28    23   1
    29    24    25   1
    30    26    24   1
    31    27    26   1
    32    27    28   1
    33    27    29   1
    34     2    32   1
    35     3    33   1
    36     9    34   1
    37    11    35   1
    38    12    36   1
    39    14    37   1
    40    14    38   1
    41    14    39   1
    42    15    40   1
    43    15    41   1
    44    15    42   1
    45    16    43   1
    46    16    44   1
    47    16    45   1
    48    17    46   1
    49    17    47   1
    50    17    48   1
    51    22    49   1
    52    22    50   1
    53    23    51   1
    54    24    52   1
    55    25    53   1
    56    26    54   1
    57    27    55   1
    58    31    56   1
    59    31    57   1
@<TRIPOS>SUBSTRUCTURE
     1  MOL      1

