@<TRIPOS>MOLECULE
3coy_ligand_077
    57    59
SMALL
GAST_HUCK
****
This file was generated by PARSER (from files_GN.cpp)

@<TRIPOS>ATOM
      1 C1         13.7805    9.2033    0.6983 C.2         1 MOL       0.2465
      2 C2         21.6440    7.4591    1.5975 C.ar        1 MOL       0.0533
      3 C3         13.6576    8.8648   -0.7223 C.3         1 MOL       0.0714
      4 C4         20.3106    8.6489    3.1466 C.ar        1 MOL       0.1613
      5 C5         20.3226    7.5459    4.0037 C.ar        1 MOL       0.1045
      6 C6         21.0100    6.3789    3.6205 C.ar        1 MOL       0.1298
      7 C7         14.1302    9.9785   -1.7472 C.3         1 MOL       0.0226
      8 N1         21.6461    6.3762    2.4188 N.ar        1 MOL      -0.2698
      9 N2         14.9398    9.1100    1.3405 N.am        1 MOL      -0.1294
     10 O1         12.7726    9.5631    1.2971 O.2         1 MOL      -0.3891
     11 C8         19.2239    9.1181    4.9491 C.2         1 MOL       0.1123
     12 O2         20.2070   12.6274    1.7486 O.3         1 MOL      -0.3836
     13 N3         20.9836    8.5868    1.9673 N.ar        1 MOL      -0.2714
     14 C9         13.5842   11.3944   -1.3588 C.3         1 MOL      -0.0527
     15 C10        15.6872   10.0573   -1.8455 C.3         1 MOL      -0.0527
     16 C11        13.5725    9.6468   -3.1737 C.3         1 MOL      -0.0527
     17 N4         14.2986    7.5501   -0.9528 N.4         1 MOL       0.2383
     18 S1         15.1376    9.3276    3.0051 S.o2        1 MOL       0.1859
     19 O1A        16.5942    8.6224    3.4860 O.2         1 MOL      -0.1218
     20 O2A        13.8634    8.6489    3.8848 O.2         1 MOL      -0.1218
     21 O5         15.1927   10.9739    3.3938 O.3         1 MOL      -0.2161
     22 C25        15.7754   12.0304    2.6307 C.3         1 MOL       0.1073
     23 C24        17.3279   12.1052    2.6750 C.3         1 MOL       0.1161
     24 C23        18.0200   11.6458    1.3825 C.3         1 MOL       0.1146
     25 O3         17.9436   12.5987    0.3157 O.3         1 MOL      -0.3864
     26 C22        19.4611   11.4082    1.8429 C.3         1 MOL       0.1385
     27 C21        19.2874   10.9795    3.3333 C.3         1 MOL       0.2010
     28 O4         17.9095   11.2614    3.6751 O.3         1 MOL      -0.3367
     29 N9         19.5891    9.6242    3.7448 N.pl3       1 MOL      -0.1919
     30 N7         19.6439    7.8529    5.1142 N.2         1 MOL      -0.2958
     31 N6         21.0640    5.2931    4.4085 N.pl3       1 MOL      -0.3152
     32 H1         22.1350    7.4274    0.7074 H           1 MOL       0.0996
     33 H2         12.5946    8.6879   -0.9164 H           1 MOL       0.1104
     34 H3         15.7152    8.8072    0.8397 H           1 MOL       0.2167
     35 H4         18.6840    9.6177    5.6560 H           1 MOL       0.1349
     36 H5         21.0221   12.4190    1.2503 H           1 MOL       0.2101
     37 H6         13.8769   12.1493   -2.0939 H           1 MOL       0.0238
     38 H7         13.9798   11.7129   -0.3943 H           1 MOL       0.0238
     39 H8         12.4942   11.3900   -1.2929 H           1 MOL       0.0238
     40 H9         16.1167    9.1015   -2.1518 H           1 MOL       0.0238
     41 H10        16.1171   10.3307   -0.8850 H           1 MOL       0.0238
     42 H11        15.9979   10.8085   -2.5771 H           1 MOL       0.0238
     43 H12        12.4820    9.5886   -3.1589 H           1 MOL       0.0238
     44 H13        13.9593    8.6931   -3.5343 H           1 MOL       0.0238
     45 H14        13.8551   10.4177   -3.8946 H           1 MOL       0.0238
     46 H15        13.8610    6.8348   -0.3667 H           1 MOL       0.2015
     47 H16        15.2944    7.5957   -0.7229 H           1 MOL       0.2015
     48 H17        14.1941    7.2795   -1.9303 H           1 MOL       0.2015
     49 H18        15.3774   12.9521    3.0554 H           1 MOL       0.0611
     50 H19        15.4133   11.9738    1.6059 H           1 MOL       0.0611
     51 H20        17.6273   13.1415    2.8840 H           1 MOL       0.0648
     52 H21        17.5858   10.6967    1.0582 H           1 MOL       0.0648
     53 H22        17.0415   12.9855    0.3627 H           1 MOL       0.2100
     54 H23        19.9109   10.6696    1.1875 H           1 MOL       0.0676
     55 H24        19.9115   11.6257    3.9536 H           1 MOL       0.0996
     56 H25        21.5447    4.5056    4.1088 H           1 MOL       0.1820
     57 H26        20.6678    5.3011    5.2935 H           1 MOL       0.1820
@<TRIPOS>BOND
     1     1     3   1
     2     9     1  am
     3     1    10   2
     4     2     8  ar
     5    13     2  ar
     6     3     7   1
     7     3    17   1
     8     4     5  ar
     9     4    13  ar
    10    29     4   1
    11     5     6  ar
    12    30     5   1
    13     6     8  ar
    14     6    31   1
    15     7    14   1
    16     7    15   1
    17     7    16   1
    18    18     9  am
    19    29    11   1
    20    11    30   2
    21    26    12   1
    22    18    19   2
    23    18    20   2
    24    21    18   1
    25    22    21   1
    26    23    22   1
    27    23    24   1
    28    28    23   1
    29    24    25   1
    30    26    24   1
    31    27    26   1
    32    27    28   1
    33    27    29   1
    34     2    32   1
    35     3    33   1
    36     9    34   1
    37    11    35   1
    38    12    36   1
    39    14    37   1
    40    14    38   1
    41    14    39   1
    42    15    40   1
    43    15    41   1
    44    15    42   1
    45    16    43   1
    46    16    44   1
    47    16    45   1
    48    17    46   1
    49    17    47   1
    50    17    48   1
    51    22    49   1
    52    22    50   1
    53    23    51   1
    54    24    52   1
    55    25    53   1
    56    26    54   1
    57    27    55   1
    58    31    56   1
    59    31    57   1
@<TRIPOS>SUBSTRUCTURE
     1  MOL      1

