@<TRIPOS>MOLECULE
3coy_ligand_040
    57    59
SMALL
GAST_HUCK
****
This file was generated by PARSER (from files_GN.cpp)

@<TRIPOS>ATOM
      1 C1         19.4619   11.2743   -0.8682 C.2         1 MOL       0.2465
      2 C2         24.1937    8.7322    6.8580 C.ar        1 MOL       0.0533
      3 C3         18.4186   10.5505   -1.6055 C.3         1 MOL       0.0714
      4 C4         23.8228    6.6749    5.7771 C.ar        1 MOL       0.1613
      5 C5         24.2237    5.9865    6.9206 C.ar        1 MOL       0.1045
      6 C6         24.6138    6.7162    8.0512 C.ar        1 MOL       0.1298
      7 C7         16.9549   10.6406   -1.0049 C.3         1 MOL       0.0226
      8 N1         24.5857    8.0775    7.9838 N.ar        1 MOL      -0.2698
      9 N2         20.1638   10.6492    0.0541 N.am        1 MOL      -0.1294
     10 O1         19.6908   12.4471   -1.1404 O.2         1 MOL      -0.3891
     11 C8         23.6748    4.5475    5.4248 C.2         1 MOL       0.1123
     12 O2         21.0863    5.0912    2.2431 O.3         1 MOL      -0.3836
     13 N3         23.8099    8.0308    5.7571 N.ar        1 MOL      -0.2714
     14 C9         16.0662    9.4869   -1.5922 C.3         1 MOL      -0.0527
     15 C10        16.9963   10.4702    0.5535 C.3         1 MOL      -0.0527
     16 C11        16.2520   12.0009   -1.3388 C.3         1 MOL      -0.0527
     17 N4         18.4742   10.9904   -3.0102 N.4         1 MOL       0.2383
     18 S1         21.3760   11.3596    1.0038 S.o2        1 MOL       0.1859
     19 O1A        20.5916   12.2316    2.2219 O.2         1 MOL      -0.1218
     20 O2A        22.2858   12.4264    0.0664 O.2         1 MOL      -0.1218
     21 O5         22.3442   10.1318    1.6562 O.3         1 MOL      -0.2161
     22 C25        22.0428    9.4611    2.8838 C.3         1 MOL       0.1073
     23 C24        21.9940    7.9247    2.6630 C.3         1 MOL       0.1161
     24 C23        20.9170    7.1990    3.4968 C.3         1 MOL       0.1146
     25 O3         19.6035    7.3372    2.9561 O.3         1 MOL      -0.3864
     26 C22        21.4338    5.7571    3.4607 C.3         1 MOL       0.1385
     27 C21        22.9699    5.9643    3.5204 C.3         1 MOL       0.2010
     28 O4         23.2357    7.2936    3.0238 O.3         1 MOL      -0.3367
     29 N9         23.4808    5.7582    4.8499 N.pl3       1 MOL      -0.1919
     30 N7         24.1270    4.6684    6.6845 N.2         1 MOL      -0.2958
     31 N6         24.9840    6.1051    9.1873 N.pl3       1 MOL      -0.3152
     32 H1         24.1751    9.7525    6.8402 H           1 MOL       0.0996
     33 H2         18.6877    9.4970   -1.6277 H           1 MOL       0.1104
     34 H3         19.9786    9.7139    0.2230 H           1 MOL       0.2167
     35 H4         23.5043    3.6465    4.9697 H           1 MOL       0.1349
     36 H5         20.2210    5.4565    1.9686 H           1 MOL       0.2101
     37 H6         15.0688    9.4969   -1.1478 H           1 MOL       0.0238
     38 H7         16.5153    8.5153   -1.3934 H           1 MOL       0.0238
     39 H8         15.9497    9.5931   -2.6701 H           1 MOL       0.0238
     40 H9         17.5178   11.3081    1.0206 H           1 MOL       0.0238
     41 H10        17.5201    9.5516    0.8247 H           1 MOL       0.0238
     42 H11        15.9905   10.4264    0.9728 H           1 MOL       0.0238
     43 H12        16.1610   12.1309   -2.4169 H           1 MOL       0.0238
     44 H13        16.8129   12.8418   -0.9355 H           1 MOL       0.0238
     45 H14        15.2466   12.0292   -0.9147 H           1 MOL       0.0238
     46 H15        19.4109   10.8294   -3.3803 H           1 MOL       0.2015
     47 H16        18.2582   11.9938   -3.0753 H           1 MOL       0.2015
     48 H17        17.7996   10.4701   -3.5712 H           1 MOL       0.2015
     49 H18        21.0885    9.8047    3.2747 H           1 MOL       0.0611
     50 H19        22.8150    9.7071    3.6133 H           1 MOL       0.0611
     51 H20        21.7989    7.7295    1.6024 H           1 MOL       0.0648
     52 H21        20.9179    7.5670    4.5290 H           1 MOL       0.0648
     53 H22        19.5628    8.2400    2.5870 H           1 MOL       0.2100
     54 H23        21.0406    5.1813    4.3010 H           1 MOL       0.0676
     55 H24        23.4791    5.2653    2.8520 H           1 MOL       0.0996
     56 H25        25.2203    6.6332    9.9671 H           1 MOL       0.1820
     57 H26        24.9858    5.1359    9.2430 H           1 MOL       0.1820
@<TRIPOS>BOND
     1     1     3   1
     2     9     1  am
     3     1    10   2
     4     2     8  ar
     5    13     2  ar
     6     3     7   1
     7     3    17   1
     8     4     5  ar
     9     4    13  ar
    10    29     4   1
    11     5     6  ar
    12    30     5   1
    13     6     8  ar
    14     6    31   1
    15     7    14   1
    16     7    15   1
    17     7    16   1
    18    18     9  am
    19    29    11   1
    20    11    30   2
    21    26    12   1
    22    18    19   2
    23    18    20   2
    24    21    18   1
    25    22    21   1
    26    23    22   1
    27    23    24   1
    28    28    23   1
    29    24    25   1
    30    26    24   1
    31    27    26   1
    32    27    28   1
    33    27    29   1
    34     2    32   1
    35     3    33   1
    36     9    34   1
    37    11    35   1
    38    12    36   1
    39    14    37   1
    40    14    38   1
    41    14    39   1
    42    15    40   1
    43    15    41   1
    44    15    42   1
    45    16    43   1
    46    16    44   1
    47    16    45   1
    48    17    46   1
    49    17    47   1
    50    17    48   1
    51    22    49   1
    52    22    50   1
    53    23    51   1
    54    24    52   1
    55    25    53   1
    56    26    54   1
    57    27    55   1
    58    31    56   1
    59    31    57   1
@<TRIPOS>SUBSTRUCTURE
     1  MOL      1

