@<TRIPOS>MOLECULE
3coy_ligand_031
    57    59
SMALL
GAST_HUCK
****
This file was generated by PARSER (from files_GN.cpp)

@<TRIPOS>ATOM
      1 C1         13.8945    9.3345    3.6638 C.2         1 MOL       0.2465
      2 C2         21.6629    7.2845   -0.5933 C.ar        1 MOL       0.0533
      3 C3         13.9957    9.2087    5.1174 C.3         1 MOL       0.0714
      4 C4         20.2611    8.8234    0.5271 C.ar        1 MOL       0.1613
      5 C5         20.8216    8.4541    1.7491 C.ar        1 MOL       0.1045
      6 C6         21.8159    7.4618    1.7748 C.ar        1 MOL       0.1298
      7 C7         14.9515   10.2630    5.8564 C.3         1 MOL       0.0226
      8 N1         22.2046    6.9094    0.5925 N.ar        1 MOL      -0.2698
      9 N2         13.0984   10.2429    3.1223 N.am        1 MOL      -0.1294
     10 O1         14.6126    8.6273    2.9594 O.2         1 MOL      -0.3891
     11 C8         19.3676    9.9857    2.1163 C.2         1 MOL       0.1123
     12 O2         19.3680   10.7348   -2.3823 O.3         1 MOL      -0.3836
     13 N3         20.6985    8.2418   -0.6205 N.ar        1 MOL      -0.2714
     14 C9         15.4681   11.4182    4.9271 C.3         1 MOL      -0.0527
     15 C10        14.2461   10.9463    7.0782 C.3         1 MOL      -0.0527
     16 C11        16.2204    9.5187    6.4005 C.3         1 MOL      -0.0527
     17 N4         12.6212    9.1049    5.6521 N.4         1 MOL       0.2383
     18 S1         12.8798   10.4715    1.4668 S.o2        1 MOL       0.1859
     19 O1A        11.7304   11.6879    1.2382 O.2         1 MOL      -0.1218
     20 O2A        12.3692    9.0363    0.7317 O.2         1 MOL      -0.1218
     21 O5         14.3594   10.9448    0.7909 O.3         1 MOL      -0.2161
     22 C25        14.8291   10.4721   -0.4718 C.3         1 MOL       0.1073
     23 C24        16.2854   10.9334   -0.6968 C.3         1 MOL       0.1161
     24 C23        16.9251   10.4024   -1.9995 C.3         1 MOL       0.1146
     25 O3         16.8120   11.3446   -3.0655 O.3         1 MOL      -0.3864
     26 C22        18.3769   10.0728   -1.5936 C.3         1 MOL       0.1385
     27 C21        18.4712   10.5094   -0.1110 C.3         1 MOL       0.2010
     28 O4         17.1164   10.4307    0.3561 O.3         1 MOL      -0.3367
     29 N9         19.3351    9.7760    0.7795 N.pl3       1 MOL      -0.1919
     30 N7         20.2595    9.1826    2.7209 N.2         1 MOL      -0.2958
     31 N6         22.3785    7.0546    2.9208 N.pl3       1 MOL      -0.3152
     32 H1         21.9746    6.8579   -1.4625 H           1 MOL       0.0996
     33 H2         14.3783    8.2008    5.3148 H           1 MOL       0.1104
     34 H3         12.5696   10.7989    3.7145 H           1 MOL       0.2167
     35 H4         18.7903   10.6609    2.6209 H           1 MOL       0.1349
     36 H5         19.0187   10.7464   -3.2980 H           1 MOL       0.2101
     37 H6         16.1313   12.0982    5.4667 H           1 MOL       0.0238
     38 H7         14.6324   12.0038    4.5408 H           1 MOL       0.0238
     39 H8         16.0297   11.0160    4.0819 H           1 MOL       0.0238
     40 H9         13.9377   10.2033    7.8160 H           1 MOL       0.0238
     41 H10        13.3596   11.4942    6.7526 H           1 MOL       0.0238
     42 H11        14.9105   11.6553    7.5783 H           1 MOL       0.0238
     43 H12        16.7598    9.0371    5.5817 H           1 MOL       0.0238
     44 H13        15.9374    8.7467    7.1198 H           1 MOL       0.0238
     45 H14        16.9067   10.2055    6.9010 H           1 MOL       0.0238
     46 H15        12.1061    8.3970    5.1250 H           1 MOL       0.2015
     47 H16        12.1389    9.9994    5.5653 H           1 MOL       0.2015
     48 H17        12.6511    8.8284    6.6351 H           1 MOL       0.2015
     49 H18        14.1852   10.8565   -1.2670 H           1 MOL       0.0611
     50 H19        14.7942    9.3800   -0.4811 H           1 MOL       0.0611
     51 H20        16.3146   12.0297   -0.6800 H           1 MOL       0.0648
     52 H21        16.4314    9.4819   -2.3280 H           1 MOL       0.0648
     53 H22        17.3770   12.1078   -2.8084 H           1 MOL       0.2100
     54 H23        18.5021    8.9933   -1.6814 H           1 MOL       0.0676
     55 H24        18.7868   11.5595   -0.0702 H           1 MOL       0.0996
     56 H25        23.0521    6.3565    2.9104 H           1 MOL       0.1820
     57 H26        22.1025    7.4470    3.7639 H           1 MOL       0.1820
@<TRIPOS>BOND
     1     1     3   1
     2     9     1  am
     3     1    10   2
     4     2     8  ar
     5    13     2  ar
     6     3     7   1
     7     3    17   1
     8     4     5  ar
     9     4    13  ar
    10    29     4   1
    11     5     6  ar
    12    30     5   1
    13     6     8  ar
    14     6    31   1
    15     7    14   1
    16     7    15   1
    17     7    16   1
    18    18     9  am
    19    29    11   1
    20    11    30   2
    21    26    12   1
    22    18    19   2
    23    18    20   2
    24    21    18   1
    25    22    21   1
    26    23    22   1
    27    23    24   1
    28    28    23   1
    29    24    25   1
    30    26    24   1
    31    27    26   1
    32    27    28   1
    33    27    29   1
    34     2    32   1
    35     3    33   1
    36     9    34   1
    37    11    35   1
    38    12    36   1
    39    14    37   1
    40    14    38   1
    41    14    39   1
    42    15    40   1
    43    15    41   1
    44    15    42   1
    45    16    43   1
    46    16    44   1
    47    16    45   1
    48    17    46   1
    49    17    47   1
    50    17    48   1
    51    22    49   1
    52    22    50   1
    53    23    51   1
    54    24    52   1
    55    25    53   1
    56    26    54   1
    57    27    55   1
    58    31    56   1
    59    31    57   1
@<TRIPOS>SUBSTRUCTURE
     1  MOL      1

