@<TRIPOS>MOLECULE
3coy_ligand_032
    57    59
SMALL
GAST_HUCK
****
This file was generated by PARSER (from files_GN.cpp)

@<TRIPOS>ATOM
      1 C1         16.3869   10.8518   -1.4910 C.2         1 MOL       0.2465
      2 C2         13.9587    8.0819    2.0212 C.ar        1 MOL       0.0533
      3 C3         15.6206   10.2050   -2.5580 C.3         1 MOL       0.0714
      4 C4         14.4373    9.3510    3.9470 C.ar        1 MOL       0.1613
      5 C5         13.0785    9.5472    4.1708 C.ar        1 MOL       0.1045
      6 C6         12.1477    8.9856    3.2766 C.ar        1 MOL       0.1298
      7 C7         14.0528   10.1631   -2.3269 C.3         1 MOL       0.0226
      8 N1         12.6207    8.2617    2.2229 N.ar        1 MOL      -0.2698
      9 N2         17.0974   10.1532   -0.6066 N.am        1 MOL      -0.1294
     10 O1         16.3602   12.0778   -1.4182 O.2         1 MOL      -0.3891
     11 C8         14.1732   10.5179    5.7451 C.2         1 MOL       0.1123
     12 O2         16.8823    8.3597    7.0171 O.3         1 MOL      -0.3836
     13 N3         14.8599    8.6247    2.8753 N.ar        1 MOL      -0.2714
     14 C9         13.4940   11.4280   -1.5864 C.3         1 MOL      -0.0527
     15 C10        13.2786   10.0300   -3.6836 C.3         1 MOL      -0.0527
     16 C11        13.7004    8.9118   -1.4533 C.3         1 MOL      -0.0527
     17 N4         16.0165   10.8260   -3.8417 N.4         1 MOL       0.2383
     18 S1         17.9339   10.8554    0.6810 S.o2        1 MOL       0.1859
     19 O1A        16.7588   11.5224    1.6912 O.2         1 MOL      -0.1218
     20 O2A        18.9160   12.0863    0.0621 O.2         1 MOL      -0.1218
     21 O5         18.8887    9.6988    1.4618 O.3         1 MOL      -0.2161
     22 C25        18.6074    8.8727    2.5944 C.3         1 MOL       0.1073
     23 C24        18.4932    9.6469    3.9342 C.3         1 MOL       0.1161
     24 C23        18.5707    8.7478    5.2022 C.3         1 MOL       0.1146
     25 O3         19.3489    9.3996    6.2010 O.3         1 MOL      -0.3864
     26 C22        17.0991    8.6312    5.6282 C.3         1 MOL       0.1385
     27 C21        16.5299    9.9876    5.1766 C.3         1 MOL       0.2010
     28 O4         17.2125   10.3238    3.9546 O.3         1 MOL      -0.3367
     29 N9         15.1108    9.9532    4.9530 N.pl3       1 MOL      -0.1919
     30 N7         12.9299   10.2698    5.2912 N.2         1 MOL      -0.2958
     31 N6         10.8275    9.1636    3.4537 N.pl3       1 MOL      -0.3152
     32 H1         14.2808    7.5213    1.2381 H           1 MOL       0.0996
     33 H2         15.9743    9.1759   -2.6483 H           1 MOL       0.1104
     34 H3         17.0746    9.1794   -0.6505 H           1 MOL       0.2167
     35 H4         14.3649   11.0469    6.6018 H           1 MOL       0.1349
     36 H5         17.5592    8.9063    7.5149 H           1 MOL       0.2101
     37 H6         12.4000   11.4133   -1.5497 H           1 MOL       0.0238
     38 H7         13.8031   12.3383   -2.0999 H           1 MOL       0.0238
     39 H8         13.8550   11.4755   -0.5599 H           1 MOL       0.0238
     40 H9         13.6430    9.1705   -4.2559 H           1 MOL       0.0238
     41 H10        13.4005   10.9232   -4.2969 H           1 MOL       0.0238
     42 H11        12.2057    9.8909   -3.5154 H           1 MOL       0.0238
     43 H12        14.2550    8.9268   -0.5116 H           1 MOL       0.0238
     44 H13        13.9509    7.9897   -1.9781 H           1 MOL       0.0238
     45 H14        12.6315    8.8851   -1.2147 H           1 MOL       0.0238
     46 H15        17.0362   10.8544   -3.9275 H           1 MOL       0.2015
     47 H16        15.6486   11.7776   -3.8945 H           1 MOL       0.2015
     48 H17        15.6436   10.2759   -4.6134 H           1 MOL       0.2015
     49 H18        19.4421    8.1741    2.6695 H           1 MOL       0.0611
     50 H19        17.6982    8.2755    2.4011 H           1 MOL       0.0611
     51 H20        19.2872   10.3939    3.9571 H           1 MOL       0.0648
     52 H21        19.0022    7.7554    5.0019 H           1 MOL       0.0648
     53 H22        19.2981    8.8276    7.0079 H           1 MOL       0.2100
     54 H23        16.6443    7.8101    5.0620 H           1 MOL       0.0676
     55 H24        16.7831   10.7424    5.9236 H           1 MOL       0.0996
     56 H25        10.1833    8.7531    2.8574 H           1 MOL       0.1820
     57 H26        10.5332    9.7412    4.1673 H           1 MOL       0.1820
@<TRIPOS>BOND
     1     1     3   1
     2     9     1  am
     3     1    10   2
     4     2     8  ar
     5    13     2  ar
     6     3     7   1
     7     3    17   1
     8     4     5  ar
     9     4    13  ar
    10    29     4   1
    11     5     6  ar
    12    30     5   1
    13     6     8  ar
    14     6    31   1
    15     7    14   1
    16     7    15   1
    17     7    16   1
    18    18     9  am
    19    29    11   1
    20    11    30   2
    21    26    12   1
    22    18    19   2
    23    18    20   2
    24    21    18   1
    25    22    21   1
    26    23    22   1
    27    23    24   1
    28    28    23   1
    29    24    25   1
    30    26    24   1
    31    27    26   1
    32    27    28   1
    33    27    29   1
    34     2    32   1
    35     3    33   1
    36     9    34   1
    37    11    35   1
    38    12    36   1
    39    14    37   1
    40    14    38   1
    41    14    39   1
    42    15    40   1
    43    15    41   1
    44    15    42   1
    45    16    43   1
    46    16    44   1
    47    16    45   1
    48    17    46   1
    49    17    47   1
    50    17    48   1
    51    22    49   1
    52    22    50   1
    53    23    51   1
    54    24    52   1
    55    25    53   1
    56    26    54   1
    57    27    55   1
    58    31    56   1
    59    31    57   1
@<TRIPOS>SUBSTRUCTURE
     1  MOL      1

