@<TRIPOS>MOLECULE
3coy_ligand_036
    57    59
SMALL
GAST_HUCK
****
This file was generated by PARSER (from files_GN.cpp)

@<TRIPOS>ATOM
      1 C1         14.8277   10.1178    8.2895 C.2         1 MOL       0.2465
      2 C2         21.7642   13.2008    1.1164 C.ar        1 MOL       0.0533
      3 C3         14.7708   11.3812    9.0241 C.3         1 MOL       0.0714
      4 C4         20.2275   11.5768    1.8608 C.ar        1 MOL       0.1613
      5 C5         20.8606   10.6095    1.0874 C.ar        1 MOL       0.1045
      6 C6         21.9863   10.9674    0.3249 C.ar        1 MOL       0.1298
      7 C7         13.4486   11.5854    9.8782 C.3         1 MOL       0.0226
      8 N1         22.4010   12.2645    0.3596 N.ar        1 MOL      -0.2698
      9 N2         14.2009   10.0209    7.1311 N.am        1 MOL      -0.1294
     10 O1         15.4218    9.1540    8.7747 O.2         1 MOL      -0.3891
     11 C8         19.2101    9.6869    2.1011 C.2         1 MOL       0.1123
     12 O2         16.3133   13.0577    3.2913 O.3         1 MOL      -0.3836
     13 N3         20.6819   12.8570    1.8675 N.ar        1 MOL      -0.2714
     14 C9         13.4756   12.9623   10.6235 C.3         1 MOL      -0.0527
     15 C10        12.1813   11.5901    8.9591 C.3         1 MOL      -0.0527
     16 C11        13.2786   10.4610   10.9500 C.3         1 MOL      -0.0527
     17 N4         15.9994   11.5567    9.8303 N.4         1 MOL       0.2383
     18 S1         14.0198    8.6171    6.2106 S.o2        1 MOL       0.1859
     19 O1A        12.5931    8.6479    5.3076 O.2         1 MOL      -0.1218
     20 O2A        14.0166    7.2507    7.2081 O.2         1 MOL      -0.1218
     21 O5         15.3255    8.4137    5.1550 O.3         1 MOL      -0.2161
     22 C25        16.6336    8.9740    5.3026 C.3         1 MOL       0.1073
     23 C24        16.7470   10.4199    4.7535 C.3         1 MOL       0.1161
     24 C23        16.0792   10.6385    3.3824 C.3         1 MOL       0.1146
     25 O3         14.6781   10.8849    3.4924 O.3         1 MOL      -0.3864
     26 C22        16.8720   11.8238    2.8210 C.3         1 MOL       0.1385
     27 C21        18.2809   11.5938    3.4209 C.3         1 MOL       0.2010
     28 O4         18.1321   10.7570    4.5814 O.3         1 MOL      -0.3367
     29 N9         19.2001   10.9818    2.4958 N.pl3       1 MOL      -0.1919
     30 N7         20.2211    9.4458    1.2485 N.2         1 MOL      -0.2958
     31 N6         22.6432   10.0574   -0.4106 N.pl3       1 MOL      -0.3152
     32 H1         22.1056   14.1617    1.1234 H           1 MOL       0.0996
     33 H2         14.8237   12.1829    8.2778 H           1 MOL       0.1104
     34 H3         13.7249   10.8080    6.8142 H           1 MOL       0.2167
     35 H4         18.5560    8.9670    2.4111 H           1 MOL       0.1349
     36 H5         16.1101   13.5715    2.4806 H           1 MOL       0.2101
     37 H6         12.5423   13.1363   11.1662 H           1 MOL       0.0238
     38 H7         13.6076   13.7815    9.9149 H           1 MOL       0.0238
     39 H8         14.2883   13.0018   11.3515 H           1 MOL       0.0238
     40 H9         12.0436   10.6248    8.4731 H           1 MOL       0.0238
     41 H10        12.2761   12.3557    8.1874 H           1 MOL       0.0238
     42 H11        11.2709   11.7924    9.5276 H           1 MOL       0.0238
     43 H12        14.1490   10.4248   11.6050 H           1 MOL       0.0238
     44 H13        13.1589    9.4821   10.4798 H           1 MOL       0.0238
     45 H14        12.4020   10.6415   11.5751 H           1 MOL       0.0238
     46 H15        16.8212   11.3252    9.2691 H           1 MOL       0.2015
     47 H16        15.9793   10.9438   10.6476 H           1 MOL       0.2015
     48 H17        16.0689   12.5304   10.1304 H           1 MOL       0.2015
     49 H18        17.3120    8.3175    4.7585 H           1 MOL       0.0611
     50 H19        16.9493    8.9499    6.3466 H           1 MOL       0.0611
     51 H20        16.3173   11.1205    5.4784 H           1 MOL       0.0648
     52 H21        16.2294    9.7656    2.7436 H           1 MOL       0.0648
     53 H22        14.3744   11.0323    2.5723 H           1 MOL       0.2100
     54 H23        16.8776   11.8117    1.7250 H           1 MOL       0.0676
     55 H24        18.6885   12.5483    3.7662 H           1 MOL       0.0996
     56 H25        23.4414   10.3112   -0.9017 H           1 MOL       0.1820
     57 H26        22.3418    9.1349   -0.4274 H           1 MOL       0.1820
@<TRIPOS>BOND
     1     1     3   1
     2     9     1  am
     3     1    10   2
     4     2     8  ar
     5    13     2  ar
     6     3     7   1
     7     3    17   1
     8     4     5  ar
     9     4    13  ar
    10    29     4   1
    11     5     6  ar
    12    30     5   1
    13     6     8  ar
    14     6    31   1
    15     7    14   1
    16     7    15   1
    17     7    16   1
    18    18     9  am
    19    29    11   1
    20    11    30   2
    21    26    12   1
    22    18    19   2
    23    18    20   2
    24    21    18   1
    25    22    21   1
    26    23    22   1
    27    23    24   1
    28    28    23   1
    29    24    25   1
    30    26    24   1
    31    27    26   1
    32    27    28   1
    33    27    29   1
    34     2    32   1
    35     3    33   1
    36     9    34   1
    37    11    35   1
    38    12    36   1
    39    14    37   1
    40    14    38   1
    41    14    39   1
    42    15    40   1
    43    15    41   1
    44    15    42   1
    45    16    43   1
    46    16    44   1
    47    16    45   1
    48    17    46   1
    49    17    47   1
    50    17    48   1
    51    22    49   1
    52    22    50   1
    53    23    51   1
    54    24    52   1
    55    25    53   1
    56    26    54   1
    57    27    55   1
    58    31    56   1
    59    31    57   1
@<TRIPOS>SUBSTRUCTURE
     1  MOL      1

