@<TRIPOS>MOLECULE
3coy_ligand_035
    57    59
SMALL
GAST_HUCK
****
This file was generated by PARSER (from files_GN.cpp)

@<TRIPOS>ATOM
      1 C1         20.2121    6.7547    4.0060 C.2         1 MOL       0.2465
      2 C2         13.2421   11.5275   -1.1858 C.ar        1 MOL       0.0533
      3 C3         19.5086    5.4707    3.9278 C.3         1 MOL       0.0714
      4 C4         14.8705   11.1062    0.4585 C.ar        1 MOL       0.1613
      5 C5         13.9112   11.1914    1.4608 C.ar        1 MOL       0.1045
      6 C6         12.5784   11.4588    1.1015 C.ar        1 MOL       0.1298
      7 C7         20.3869    4.2318    3.4563 C.3         1 MOL       0.0226
      8 N1         12.2877   11.6199   -0.2187 N.ar        1 MOL      -0.2698
      9 N2         20.4769    7.3983    2.8789 N.am        1 MOL      -0.1294
     10 O1         20.5615    7.2112    5.0901 O.2         1 MOL      -0.3891
     11 C8         15.8130   10.7999    2.3757 C.2         1 MOL       0.1123
     12 O2         18.2676   11.8182   -1.6177 O.3         1 MOL      -0.3836
     13 N3         14.5353   11.2716   -0.8467 N.ar        1 MOL      -0.2714
     14 C9         21.2410    3.6528    4.6294 C.3         1 MOL      -0.0527
     15 C10        19.4490    3.0957    2.9247 C.3         1 MOL      -0.0527
     16 C11        21.3776    4.5877    2.2963 C.3         1 MOL      -0.0527
     17 N4         18.7908    5.1945    5.1929 N.4         1 MOL       0.2383
     18 S1         21.3588    8.8291    2.7182 S.o2        1 MOL       0.1859
     19 O1A        21.8978    9.0276    1.1274 O.2         1 MOL      -0.1218
     20 O2A        22.6655    8.7750    3.7917 O.2         1 MOL      -0.1218
     21 O5         20.3647   10.1021    3.2248 O.3         1 MOL      -0.2161
     22 C25        20.1744   11.3617    2.5708 C.3         1 MOL       0.1073
     23 C24        19.4582   11.2371    1.1986 C.3         1 MOL       0.1161
     24 C23        18.8819   12.5594    0.6508 C.3         1 MOL       0.1146
     25 O3         19.8714   13.3624    0.0101 O.3         1 MOL      -0.3864
     26 C22        17.7802   12.0635   -0.2977 C.3         1 MOL       0.1385
     27 C21        17.3194   10.7384    0.3715 C.3         1 MOL       0.2010
     28 O4         18.3542   10.3292    1.2860 O.3         1 MOL      -0.3367
     29 N9         16.0595   10.8732    1.0470 N.pl3       1 MOL      -0.1919
     30 N7         14.5110   10.9974    2.6432 N.2         1 MOL      -0.2958
     31 N6         11.6045   11.5628    2.0189 N.pl3       1 MOL      -0.3152
     32 H1         12.9882   11.6521   -2.1660 H           1 MOL       0.0996
     33 H2         18.7024    5.6143    3.2024 H           1 MOL       0.1104
     34 H3         20.1543    6.9888    2.0601 H           1 MOL       0.2167
     35 H4         16.5155   10.6322    3.0985 H           1 MOL       0.1349
     36 H5         18.2418   12.6899   -2.0723 H           1 MOL       0.2101
     37 H6         21.8860    2.8425    4.2818 H           1 MOL       0.0238
     38 H7         20.6009    3.2467    5.4121 H           1 MOL       0.0238
     39 H8         21.8743    4.4275    5.0650 H           1 MOL       0.0238
     40 H9         18.8581    3.4454    2.0746 H           1 MOL       0.0238
     41 H10        18.7599    2.7559    3.6991 H           1 MOL       0.0238
     42 H11        20.0297    2.2307    2.5958 H           1 MOL       0.0238
     43 H12        22.1325    5.3032    2.6259 H           1 MOL       0.0238
     44 H13        20.8452    5.0133    1.4455 H           1 MOL       0.0238
     45 H14        21.9093    3.6980    1.9489 H           1 MOL       0.0238
     46 H15        18.1507    5.9626    5.4088 H           1 MOL       0.2015
     47 H16        19.4581    5.0954    5.9616 H           1 MOL       0.2015
     48 H17        18.2513    4.3321    5.1050 H           1 MOL       0.2015
     49 H18        21.1398   11.8609    2.4498 H           1 MOL       0.0611
     50 H19        19.5693   11.9644    3.2503 H           1 MOL       0.0611
     51 H20        20.1667   10.8331    0.4691 H           1 MOL       0.0648
     52 H21        18.4186   13.1400    1.4557 H           1 MOL       0.0648
     53 H22        20.5870   13.4653    0.6744 H           1 MOL       0.2100
     54 H23        16.9781   12.8019   -0.3654 H           1 MOL       0.0676
     55 H24        17.2173    9.9489   -0.3786 H           1 MOL       0.0996
     56 H25        10.6968   11.7594    1.7367 H           1 MOL       0.1820
     57 H26        11.7999   11.4477    2.9632 H           1 MOL       0.1820
@<TRIPOS>BOND
     1     1     3   1
     2     9     1  am
     3     1    10   2
     4     2     8  ar
     5    13     2  ar
     6     3     7   1
     7     3    17   1
     8     4     5  ar
     9     4    13  ar
    10    29     4   1
    11     5     6  ar
    12    30     5   1
    13     6     8  ar
    14     6    31   1
    15     7    14   1
    16     7    15   1
    17     7    16   1
    18    18     9  am
    19    29    11   1
    20    11    30   2
    21    26    12   1
    22    18    19   2
    23    18    20   2
    24    21    18   1
    25    22    21   1
    26    23    22   1
    27    23    24   1
    28    28    23   1
    29    24    25   1
    30    26    24   1
    31    27    26   1
    32    27    28   1
    33    27    29   1
    34     2    32   1
    35     3    33   1
    36     9    34   1
    37    11    35   1
    38    12    36   1
    39    14    37   1
    40    14    38   1
    41    14    39   1
    42    15    40   1
    43    15    41   1
    44    15    42   1
    45    16    43   1
    46    16    44   1
    47    16    45   1
    48    17    46   1
    49    17    47   1
    50    17    48   1
    51    22    49   1
    52    22    50   1
    53    23    51   1
    54    24    52   1
    55    25    53   1
    56    26    54   1
    57    27    55   1
    58    31    56   1
    59    31    57   1
@<TRIPOS>SUBSTRUCTURE
     1  MOL      1

