@<TRIPOS>MOLECULE
3coy_ligand_087
    57    59
SMALL
GAST_HUCK
****
This file was generated by PARSER (from files_GN.cpp)

@<TRIPOS>ATOM
      1 C1         17.6253   10.4880   -1.4354 C.2         1 MOL       0.2465
      2 C2         13.6452    8.8671    3.0642 C.ar        1 MOL       0.0533
      3 C3         16.3789   10.1736   -2.1292 C.3         1 MOL       0.0714
      4 C4         15.4081   10.2522    3.7812 C.ar        1 MOL       0.1613
      5 C5         14.6369   11.3840    3.5309 C.ar        1 MOL       0.1045
      6 C6         13.3491   11.2281    2.9970 C.ar        1 MOL       0.1298
      7 C7         15.0425   10.4577   -1.3312 C.3         1 MOL       0.0226
      8 N1         12.8902    9.9633    2.7809 N.ar        1 MOL      -0.2698
      9 N2         18.2153    9.5587   -0.7028 N.am        1 MOL      -0.1294
     10 O1         18.0873   11.6225   -1.4701 O.2         1 MOL      -0.3891
     11 C8         16.5079   12.0312    4.3461 C.2         1 MOL       0.1123
     12 O2         17.0777    7.9322    5.9405 O.3         1 MOL      -0.3836
     13 N3         14.9042    9.0098    3.5585 N.ar        1 MOL      -0.2714
     14 C9         14.3299   11.7754   -1.7995 C.3         1 MOL      -0.0527
     15 C10        14.0378    9.2602   -1.5303 C.3         1 MOL      -0.0527
     16 C11        15.3245   10.5714    0.2098 C.3         1 MOL      -0.0527
     17 N4         16.3859   10.8249   -3.4592 N.4         1 MOL       0.2383
     18 S1         19.6935    9.6596    0.0930 S.o2        1 MOL       0.1859
     19 O1A        20.3527   11.2243    0.1631 O.2         1 MOL      -0.1218
     20 O2A        20.7602    8.6868   -0.8053 O.2         1 MOL      -0.1218
     21 O5         19.5525    8.9511    1.6313 O.3         1 MOL      -0.2161
     22 C25        20.5505    8.9840    2.6517 C.3         1 MOL       0.1073
     23 C24        19.8731    9.2703    4.0151 C.3         1 MOL       0.1161
     24 C23        19.2021    8.0409    4.6931 C.3         1 MOL       0.1146
     25 O3         19.7651    7.8181    5.9951 O.3         1 MOL      -0.3864
     26 C22        17.7129    8.4187    4.7542 C.3         1 MOL       0.1385
     27 C21        17.7581    9.9666    4.7104 C.3         1 MOL       0.2010
     28 O4         18.8471   10.2673    3.8218 O.3         1 MOL      -0.3367
     29 N9         16.5841   10.6776    4.2747 N.pl3       1 MOL      -0.1919
     30 N7         15.3215   12.4777    3.8984 N.2         1 MOL      -0.2958
     31 N6         12.5976   12.2830    2.6755 N.pl3       1 MOL      -0.3152
     32 H1         13.2607    7.9309    2.9151 H           1 MOL       0.0996
     33 H2         16.4124    9.1011   -2.3577 H           1 MOL       0.1104
     34 H3         17.7734    8.6944   -0.6553 H           1 MOL       0.2167
     35 H4         17.2449   12.6544    4.7014 H           1 MOL       0.1349
     36 H5         16.1226    8.0922    5.7927 H           1 MOL       0.2101
     37 H6         13.4228   11.9996   -1.2247 H           1 MOL       0.0238
     38 H7         14.0281   11.6980   -2.8468 H           1 MOL       0.0238
     39 H8         15.0081   12.6328   -1.7078 H           1 MOL       0.0238
     40 H9         14.4766    8.3300   -1.1479 H           1 MOL       0.0238
     41 H10        13.8180    9.1244   -2.5943 H           1 MOL       0.0238
     42 H11        13.0887    9.4191   -1.0119 H           1 MOL       0.0238
     43 H12        15.8994   11.4777    0.4363 H           1 MOL       0.0238
     44 H13        15.9038    9.7133    0.5622 H           1 MOL       0.0238
     45 H14        14.3959   10.6201    0.7842 H           1 MOL       0.0238
     46 H15        17.2759   10.6661   -3.9310 H           1 MOL       0.2015
     47 H16        16.2578   11.8341   -3.3538 H           1 MOL       0.2015
     48 H17        15.6251   10.4535   -4.0298 H           1 MOL       0.2015
     49 H18        21.3005    9.7543    2.4536 H           1 MOL       0.0611
     50 H19        21.0626    8.0164    2.6830 H           1 MOL       0.0611
     51 H20        20.6291    9.6986    4.6895 H           1 MOL       0.0648
     52 H21        19.3349    7.1244    4.1069 H           1 MOL       0.0648
     53 H22        19.2113    8.3436    6.6149 H           1 MOL       0.2100
     54 H23        17.2115    8.0163    3.8639 H           1 MOL       0.0676
     55 H24        18.0139   10.3346    5.7187 H           1 MOL       0.0996
     56 H25        11.7044   12.1628    2.3137 H           1 MOL       0.1820
     57 H26        12.9514   13.1767    2.7926 H           1 MOL       0.1820
@<TRIPOS>BOND
     1     1     3   1
     2     9     1  am
     3     1    10   2
     4     2     8  ar
     5    13     2  ar
     6     3     7   1
     7     3    17   1
     8     4     5  ar
     9     4    13  ar
    10    29     4   1
    11     5     6  ar
    12    30     5   1
    13     6     8  ar
    14     6    31   1
    15     7    14   1
    16     7    15   1
    17     7    16   1
    18    18     9  am
    19    29    11   1
    20    11    30   2
    21    26    12   1
    22    18    19   2
    23    18    20   2
    24    21    18   1
    25    22    21   1
    26    23    22   1
    27    23    24   1
    28    28    23   1
    29    24    25   1
    30    26    24   1
    31    27    26   1
    32    27    28   1
    33    27    29   1
    34     2    32   1
    35     3    33   1
    36     9    34   1
    37    11    35   1
    38    12    36   1
    39    14    37   1
    40    14    38   1
    41    14    39   1
    42    15    40   1
    43    15    41   1
    44    15    42   1
    45    16    43   1
    46    16    44   1
    47    16    45   1
    48    17    46   1
    49    17    47   1
    50    17    48   1
    51    22    49   1
    52    22    50   1
    53    23    51   1
    54    24    52   1
    55    25    53   1
    56    26    54   1
    57    27    55   1
    58    31    56   1
    59    31    57   1
@<TRIPOS>SUBSTRUCTURE
     1  MOL      1

