@<TRIPOS>MOLECULE
3coy_ligand_015
    57    59
SMALL
GAST_HUCK
****
This file was generated by PARSER (from files_GN.cpp)

@<TRIPOS>ATOM
      1 C1         14.0079    9.5971    0.3856 C.2         1 MOL       0.2465
      2 C2         22.1011    8.4692    3.0841 C.ar        1 MOL       0.0533
      3 C3         13.8017    9.0159   -0.9400 C.3         1 MOL       0.0714
      4 C4         22.2579   10.7195    2.3842 C.ar        1 MOL       0.1613
      5 C5         23.3471   10.9111    3.2329 C.ar        1 MOL       0.1045
      6 C6         23.8037    9.8379    4.0125 C.ar        1 MOL       0.1298
      7 C7         14.3144    9.8869   -2.1606 C.3         1 MOL       0.0226
      8 N1         23.1632    8.6421    3.9211 N.ar        1 MOL      -0.2698
      9 N2         15.1856    9.5178    0.9823 N.am        1 MOL      -0.1294
     10 O1         13.0563   10.1309    0.9484 O.2         1 MOL      -0.3891
     11 C8         22.9292   12.7702    2.2470 C.2         1 MOL       0.1123
     12 O2         19.9838   11.9459   -1.3028 O.3         1 MOL      -0.3836
     13 N3         21.6464    9.5040    2.3130 N.ar        1 MOL      -0.2714
     14 C9         13.7479    9.2951   -3.4940 C.3         1 MOL      -0.0527
     15 C10        13.7901   11.3581   -2.0494 C.3         1 MOL      -0.0527
     16 C11        15.8739    9.9414   -2.2564 C.3         1 MOL      -0.0527
     17 N4         14.3398    7.6370   -0.9424 N.4         1 MOL       0.2383
     18 S1         15.5472   10.1030    2.5201 S.o2        1 MOL       0.1859
     19 O1A        15.1309    8.8629    3.5919 O.2         1 MOL      -0.1218
     20 O2A        14.6732   11.5089    2.8770 O.2         1 MOL      -0.1218
     21 O5         17.2251   10.3148    2.6115 O.3         1 MOL      -0.2161
     22 C25        17.9223   11.5550    2.7166 C.3         1 MOL       0.1073
     23 C24        18.6782   11.8700    1.4004 C.3         1 MOL       0.1161
     24 C23        19.2194   10.6520    0.6136 C.3         1 MOL       0.1146
     25 O3         18.2888   10.0648   -0.2990 O.3         1 MOL      -0.3864
     26 C22        20.4144   11.2647   -0.1233 C.3         1 MOL       0.1385
     27 C21        20.9365   12.3031    0.8847 C.3         1 MOL       0.2010
     28 O4         19.8101   12.7091    1.6804 O.3         1 MOL      -0.3367
     29 N9         22.0034   11.8994    1.7745 N.pl3       1 MOL      -0.1919
     30 N7         23.7529   12.1808    3.1315 N.2         1 MOL      -0.2958
     31 N6         24.8460    9.9624    4.8456 N.pl3       1 MOL      -0.3152
     32 H1         21.6312    7.5605    3.0290 H           1 MOL       0.0996
     33 H2         12.7203    8.8916   -1.0763 H           1 MOL       0.1104
     34 H3         15.8858    9.0189    0.5340 H           1 MOL       0.2167
     35 H4         22.9936   13.7600    1.9855 H           1 MOL       0.1349
     36 H5         19.6124   11.2458   -1.8856 H           1 MOL       0.2101
     37 H6         14.0666    9.8863   -4.3574 H           1 MOL       0.0238
     38 H7         12.6546    9.2914   -3.4803 H           1 MOL       0.0238
     39 H8         14.0866    8.2695   -3.6519 H           1 MOL       0.0238
     40 H9         14.1850   11.8528   -1.1610 H           1 MOL       0.0238
     41 H10        12.6990   11.3793   -1.9933 H           1 MOL       0.0238
     42 H11        14.1027   11.9439   -2.9163 H           1 MOL       0.0238
     43 H12        16.3142    8.9438   -2.2122 H           1 MOL       0.0238
     44 H13        16.2789   10.5376   -1.4394 H           1 MOL       0.0238
     45 H14        16.1952   10.4063   -3.1925 H           1 MOL       0.0238
     46 H15        13.8772    7.0859   -0.2149 H           1 MOL       0.2015
     47 H16        15.3454    7.6434   -0.7568 H           1 MOL       0.2015
     48 H17        14.1717    7.1948   -1.8460 H           1 MOL       0.2015
     49 H18        18.6256   11.4625    3.5433 H           1 MOL       0.0611
     50 H19        17.2396   12.3793    2.9494 H           1 MOL       0.0611
     51 H20        17.9998   12.4238    0.7434 H           1 MOL       0.0648
     52 H21        19.5657    9.8710    1.3028 H           1 MOL       0.0648
     53 H22        17.9399    9.2571    0.1519 H           1 MOL       0.2100
     54 H23        21.1629   10.5175   -0.3919 H           1 MOL       0.0676
     55 H24        21.2862   13.1750    0.3196 H           1 MOL       0.0996
     56 H25        25.1427    9.1972    5.3695 H           1 MOL       0.1820
     57 H26        25.3135   10.8128    4.9305 H           1 MOL       0.1820
@<TRIPOS>BOND
     1     1     3   1
     2     9     1  am
     3     1    10   2
     4     2     8  ar
     5    13     2  ar
     6     3     7   1
     7     3    17   1
     8     4     5  ar
     9     4    13  ar
    10    29     4   1
    11     5     6  ar
    12    30     5   1
    13     6     8  ar
    14     6    31   1
    15     7    14   1
    16     7    15   1
    17     7    16   1
    18    18     9  am
    19    29    11   1
    20    11    30   2
    21    26    12   1
    22    18    19   2
    23    18    20   2
    24    21    18   1
    25    22    21   1
    26    23    22   1
    27    23    24   1
    28    28    23   1
    29    24    25   1
    30    26    24   1
    31    27    26   1
    32    27    28   1
    33    27    29   1
    34     2    32   1
    35     3    33   1
    36     9    34   1
    37    11    35   1
    38    12    36   1
    39    14    37   1
    40    14    38   1
    41    14    39   1
    42    15    40   1
    43    15    41   1
    44    15    42   1
    45    16    43   1
    46    16    44   1
    47    16    45   1
    48    17    46   1
    49    17    47   1
    50    17    48   1
    51    22    49   1
    52    22    50   1
    53    23    51   1
    54    24    52   1
    55    25    53   1
    56    26    54   1
    57    27    55   1
    58    31    56   1
    59    31    57   1
@<TRIPOS>SUBSTRUCTURE
     1  MOL      1

