@<TRIPOS>MOLECULE
3coy_ligand_027
    57    59
SMALL
GAST_HUCK
****
This file was generated by PARSER (from files_GN.cpp)

@<TRIPOS>ATOM
      1 C1         14.0823    9.5172    0.5327 C.2         1 MOL       0.2465
      2 C2         24.0939   14.2563    1.6042 C.ar        1 MOL       0.0533
      3 C3         13.8314    9.0580   -0.8364 C.3         1 MOL       0.0714
      4 C4         22.5582   12.6414    2.3670 C.ar        1 MOL       0.1613
      5 C5         23.4308   12.2825    3.3940 C.ar        1 MOL       0.1045
      6 C6         24.6670   12.9411    3.5066 C.ar        1 MOL       0.1298
      7 C7         14.3634   10.0136   -1.9773 C.3         1 MOL       0.0226
      8 N1         24.9613   13.9189    2.6058 N.ar        1 MOL      -0.2698
      9 N2         15.2558    9.3236    1.1233 N.am        1 MOL      -0.1294
     10 O1         13.1790   10.0918    1.1362 O.2         1 MOL      -0.3891
     11 C8         21.6560   11.0822    3.5805 C.2         1 MOL       0.1123
     12 O2         19.8308   11.5866   -0.7655 O.3         1 MOL      -0.3836
     13 N3         22.8934   13.6179    1.4802 N.ar        1 MOL      -0.2714
     14 C9         13.7996    9.5490   -3.3645 C.3         1 MOL      -0.0527
     15 C10        13.8723   11.4803   -1.7460 C.3         1 MOL      -0.0527
     16 C11        15.9256   10.0281   -2.0596 C.3         1 MOL      -0.0527
     17 N4         14.3113    7.6652   -0.9685 N.4         1 MOL       0.2383
     18 S1         15.6614    9.7801    2.6972 S.o2        1 MOL       0.1859
     19 O1A        14.4024    9.4874    3.7845 O.2         1 MOL      -0.1218
     20 O2A        15.9767   11.4393    2.6472 O.2         1 MOL      -0.1218
     21 O5         17.0581    8.9563    3.1821 O.3         1 MOL      -0.2161
     22 C25        18.4187    9.0326    2.7298 C.3         1 MOL       0.1073
     23 C24        18.7697   10.0933    1.6460 C.3         1 MOL       0.1161
     24 C23        19.9567    9.6786    0.7485 C.3         1 MOL       0.1146
     25 O3         19.5554    8.9060   -0.3860 O.3         1 MOL      -0.3864
     26 C22        20.5428   11.0331    0.3462 C.3         1 MOL       0.1385
     27 C21        20.3116   11.8797    1.6188 C.3         1 MOL       0.2010
     28 O4         19.1292   11.3472    2.2528 O.3         1 MOL      -0.3367
     29 N9         21.4617   11.8678    2.4903 N.pl3       1 MOL      -0.1919
     30 N7         22.8634   11.3177    4.1323 N.2         1 MOL      -0.2958
     31 N6         25.5413   12.6343    4.4790 N.pl3       1 MOL      -0.3152
     32 H1         24.3515   14.9930    0.9445 H           1 MOL       0.0996
     33 H2         12.7475    8.9867   -0.9589 H           1 MOL       0.1104
     34 H3         15.9343    8.8286    0.6228 H           1 MOL       0.2167
     35 H4         20.9883   10.3746    3.9357 H           1 MOL       0.1349
     36 H5         20.5304   11.8169   -1.4157 H           1 MOL       0.2101
     37 H6         14.1095   10.2253   -4.1659 H           1 MOL       0.0238
     38 H7         12.7063    9.5277   -3.3547 H           1 MOL       0.0238
     39 H8         14.1517    8.5490   -3.6248 H           1 MOL       0.0238
     40 H9         14.2793   11.8846   -0.8190 H           1 MOL       0.0238
     41 H10        12.7824   11.5229   -1.6869 H           1 MOL       0.0238
     42 H11        14.1962   12.1355   -2.5575 H           1 MOL       0.0238
     43 H12        16.3223    9.0257   -2.2286 H           1 MOL       0.0238
     44 H13        16.3607   10.4167   -1.1386 H           1 MOL       0.0238
     45 H14        16.2665   10.6656   -2.8800 H           1 MOL       0.0238
     46 H15        13.8359    7.0672   -0.2890 H           1 MOL       0.2015
     47 H16        15.3187    7.6138   -0.8009 H           1 MOL       0.2015
     48 H17        14.1115    7.3168   -1.9054 H           1 MOL       0.2015
     49 H18        18.6722    8.0335    2.3572 H           1 MOL       0.0611
     50 H19        19.0533    9.2398    3.6077 H           1 MOL       0.0611
     51 H20        17.9054   10.2688    1.0034 H           1 MOL       0.0648
     52 H21        20.6981    9.1107    1.3222 H           1 MOL       0.0648
     53 H22        19.0001    8.1854   -0.0138 H           1 MOL       0.2100
     54 H23        21.5995   10.9342    0.0804 H           1 MOL       0.0676
     55 H24        20.0897   12.9136    1.3359 H           1 MOL       0.0996
     56 H25        26.3907   13.1024    4.5368 H           1 MOL       0.1820
     57 H26        25.3244   11.9423    5.1266 H           1 MOL       0.1820
@<TRIPOS>BOND
     1     1     3   1
     2     9     1  am
     3     1    10   2
     4     2     8  ar
     5    13     2  ar
     6     3     7   1
     7     3    17   1
     8     4     5  ar
     9     4    13  ar
    10    29     4   1
    11     5     6  ar
    12    30     5   1
    13     6     8  ar
    14     6    31   1
    15     7    14   1
    16     7    15   1
    17     7    16   1
    18    18     9  am
    19    29    11   1
    20    11    30   2
    21    26    12   1
    22    18    19   2
    23    18    20   2
    24    21    18   1
    25    22    21   1
    26    23    22   1
    27    23    24   1
    28    28    23   1
    29    24    25   1
    30    26    24   1
    31    27    26   1
    32    27    28   1
    33    27    29   1
    34     2    32   1
    35     3    33   1
    36     9    34   1
    37    11    35   1
    38    12    36   1
    39    14    37   1
    40    14    38   1
    41    14    39   1
    42    15    40   1
    43    15    41   1
    44    15    42   1
    45    16    43   1
    46    16    44   1
    47    16    45   1
    48    17    46   1
    49    17    47   1
    50    17    48   1
    51    22    49   1
    52    22    50   1
    53    23    51   1
    54    24    52   1
    55    25    53   1
    56    26    54   1
    57    27    55   1
    58    31    56   1
    59    31    57   1
@<TRIPOS>SUBSTRUCTURE
     1  MOL      1

