@<TRIPOS>MOLECULE
3coy_ligand_018
    57    59
SMALL
GAST_HUCK
****
This file was generated by PARSER (from files_GN.cpp)

@<TRIPOS>ATOM
      1 C1         15.5387    9.8339    2.3515 C.2         1 MOL       0.2465
      2 C2         22.9962    8.1055    3.9299 C.ar        1 MOL       0.0533
      3 C3         14.3345    9.4622    1.6130 C.3         1 MOL       0.0714
      4 C4         22.5804   10.1592    2.8475 C.ar        1 MOL       0.1613
      5 C5         23.2770   10.8356    3.8497 C.ar        1 MOL       0.1045
      6 C6         23.8417   10.1056    4.9096 C.ar        1 MOL       0.1298
      7 C7         13.0427   10.3961    1.7948 C.3         1 MOL       0.0226
      8 N1         23.6803    8.7520    4.9156 N.ar        1 MOL      -0.2698
      9 N2         16.1752   10.9591    2.0456 N.am        1 MOL      -0.1294
     10 O1         15.9309    9.1020    3.2555 O.2         1 MOL      -0.3891
     11 C8         22.5607   12.2760    2.4333 C.2         1 MOL       0.1123
     12 O2         20.7601    8.4585    0.6292 O.3         1 MOL      -0.3836
     13 N3         22.4580    8.8084    2.8979 N.ar        1 MOL      -0.2714
     14 C9         13.2521   11.6284    2.7484 C.3         1 MOL      -0.0527
     15 C10        12.5230   10.9726    0.4362 C.3         1 MOL      -0.0527
     16 C11        11.8736    9.5553    2.4219 C.3         1 MOL      -0.0527
     17 N4         14.7552    9.2382    0.2110 N.4         1 MOL       0.2383
     18 S1         17.4734   11.6371    2.8884 S.o2        1 MOL       0.1859
     19 O1A        18.2535   10.5516    3.9175 O.2         1 MOL      -0.1218
     20 O2A        16.8486   12.8618    3.8792 O.2         1 MOL      -0.1218
     21 O5         18.5973   12.3690    1.8500 O.3         1 MOL      -0.2161
     22 C25        18.4770   12.5514    0.4324 C.3         1 MOL       0.1073
     23 C24        19.5620   11.7728   -0.3602 C.3         1 MOL       0.1161
     24 C23        19.3785   10.2350   -0.3490 C.3         1 MOL       0.1146
     25 O3         19.8171    9.6610   -1.5852 O.3         1 MOL      -0.3864
     26 C22        20.3026    9.8043    0.7907 C.3         1 MOL       0.1385
     27 C21        21.4489   10.8369    0.7201 C.3         1 MOL       0.2010
     28 O4         20.8676   12.0418    0.1739 O.3         1 MOL      -0.3367
     29 N9         22.1356   11.0792    1.9661 N.pl3       1 MOL      -0.1919
     30 N7         23.2571   12.1456    3.5730 N.2         1 MOL      -0.2958
     31 N6         24.5282   10.7085    5.8890 N.pl3       1 MOL      -0.3152
     32 H1         22.8873    7.0914    3.9640 H           1 MOL       0.0996
     33 H2         14.0711    8.4505    1.9413 H           1 MOL       0.1104
     34 H3         15.8098   11.4883    1.3271 H           1 MOL       0.2167
     35 H4         22.4162   13.1770    1.9695 H           1 MOL       0.1349
     36 H5         19.9442    7.9062    0.6535 H           1 MOL       0.2101
     37 H6         12.3228   12.1871    2.9006 H           1 MOL       0.0238
     38 H7         13.9808   12.3296    2.3323 H           1 MOL       0.0238
     39 H8         13.6076   11.3063    3.7294 H           1 MOL       0.0238
     40 H9         12.2400   10.1696   -0.2522 H           1 MOL       0.0238
     41 H10        13.2974   11.5786   -0.0485 H           1 MOL       0.0238
     42 H11        11.6432   11.6103    0.5739 H           1 MOL       0.0238
     43 H12        12.1664    9.1665    3.3984 H           1 MOL       0.0238
     44 H13        11.6235    8.7086    1.7812 H           1 MOL       0.0238
     45 H14        10.9698   10.1529    2.5537 H           1 MOL       0.0238
     46 H15        15.5514    8.5980    0.1919 H           1 MOL       0.2015
     47 H16        15.0287   10.1238   -0.2170 H           1 MOL       0.2015
     48 H17        13.9869    8.8280   -0.3186 H           1 MOL       0.2015
     49 H18        18.5989   13.6184    0.2430 H           1 MOL       0.0611
     50 H19        17.4867   12.2680    0.0727 H           1 MOL       0.0611
     51 H20        19.5397   12.1316   -1.3940 H           1 MOL       0.0648
     52 H21        18.3478    9.9258   -0.1635 H           1 MOL       0.0648
     53 H22        19.2394   10.0518   -2.2792 H           1 MOL       0.2100
     54 H23        19.7819    9.8816    1.7469 H           1 MOL       0.0676
     55 H24        22.1925   10.4906   -0.0062 H           1 MOL       0.0996
     56 H25        24.9122   10.1831    6.6088 H           1 MOL       0.1820
     57 H26        24.6450   11.6717    5.8783 H           1 MOL       0.1820
@<TRIPOS>BOND
     1     1     3   1
     2     9     1  am
     3     1    10   2
     4     2     8  ar
     5    13     2  ar
     6     3     7   1
     7     3    17   1
     8     4     5  ar
     9     4    13  ar
    10    29     4   1
    11     5     6  ar
    12    30     5   1
    13     6     8  ar
    14     6    31   1
    15     7    14   1
    16     7    15   1
    17     7    16   1
    18    18     9  am
    19    29    11   1
    20    11    30   2
    21    26    12   1
    22    18    19   2
    23    18    20   2
    24    21    18   1
    25    22    21   1
    26    23    22   1
    27    23    24   1
    28    28    23   1
    29    24    25   1
    30    26    24   1
    31    27    26   1
    32    27    28   1
    33    27    29   1
    34     2    32   1
    35     3    33   1
    36     9    34   1
    37    11    35   1
    38    12    36   1
    39    14    37   1
    40    14    38   1
    41    14    39   1
    42    15    40   1
    43    15    41   1
    44    15    42   1
    45    16    43   1
    46    16    44   1
    47    16    45   1
    48    17    46   1
    49    17    47   1
    50    17    48   1
    51    22    49   1
    52    22    50   1
    53    23    51   1
    54    24    52   1
    55    25    53   1
    56    26    54   1
    57    27    55   1
    58    31    56   1
    59    31    57   1
@<TRIPOS>SUBSTRUCTURE
     1  MOL      1

