@<TRIPOS>MOLECULE
3coy_ligand_010
    57    59
SMALL
GAST_HUCK
****
This file was generated by PARSER (from files_GN.cpp)

@<TRIPOS>ATOM
      1 C1         22.1950    6.0985    2.3711 C.2         1 MOL       0.2465
      2 C2         16.2753    9.1235    2.6181 C.ar        1 MOL       0.0533
      3 C3         21.6557    5.2672    3.4595 C.3         1 MOL       0.0714
      4 C4         15.8982   10.4946    0.7390 C.ar        1 MOL       0.1613
      5 C5         14.5212   10.3878    0.9135 C.ar        1 MOL       0.1045
      6 C6         14.0319    9.6042    1.9759 C.ar        1 MOL       0.1298
      7 C7         20.3590    4.3804    3.1671 C.3         1 MOL       0.0226
      8 N1         14.9305    8.9924    2.7963 N.ar        1 MOL      -0.2698
      9 N2         21.4129    6.7906    1.5502 N.am        1 MOL      -0.1294
     10 O1         23.4111    6.1987    2.2410 O.2         1 MOL      -0.3891
     11 C8         14.8936   11.5845   -0.8323 C.2         1 MOL       0.1123
     12 O2         19.1314   13.2010   -0.8677 O.3         1 MOL      -0.3836
     13 N3         16.7529    9.8641    1.5853 N.ar        1 MOL      -0.2714
     14 C9         20.3010    3.8551    1.6924 C.3         1 MOL      -0.0527
     15 C10        20.2901    3.1188    4.0958 C.3         1 MOL      -0.0527
     16 C11        19.0630    5.2127    3.4751 C.3         1 MOL      -0.0527
     17 N4         22.7643    4.4827    4.0615 N.4         1 MOL       0.2383
     18 S1         21.9674    7.8163    0.3273 S.o2        1 MOL       0.1859
     19 O1A        23.3702    7.2339   -0.4174 O.2         1 MOL      -0.1218
     20 O2A        22.3411    9.2705    1.1047 O.2         1 MOL      -0.1218
     21 O5         20.7922    8.1687   -0.8379 O.3         1 MOL      -0.2161
     22 C25        19.4358    8.5287   -0.5942 C.3         1 MOL       0.1073
     23 C24        19.2081   10.0123   -0.9876 C.3         1 MOL       0.1161
     24 C23        19.4454   11.0220    0.1622 C.3         1 MOL       0.1146
     25 O3         20.8064   11.4453    0.2590 O.3         1 MOL      -0.3864
     26 C22        18.4615   12.1586   -0.1554 C.3         1 MOL       0.1385
     27 C21        17.3734   11.4704   -1.0206 C.3         1 MOL       0.2010
     28 O4         17.8596   10.1856   -1.4290 O.3         1 MOL      -0.3367
     29 N9         16.1178   11.2333   -0.3652 N.pl3       1 MOL      -0.1919
     30 N7         13.9162   11.0729   -0.0651 N.2         1 MOL      -0.2958
     31 N6         12.7167    9.4302    2.1665 N.pl3       1 MOL      -0.3152
     32 H1         16.9224    8.6524    3.2508 H           1 MOL       0.0996
     33 H2         21.3981    5.9771    4.2499 H           1 MOL       0.1104
     34 H3         20.4589    6.6896    1.6229 H           1 MOL       0.2167
     35 H4         14.7237   12.1319   -1.6796 H           1 MOL       0.1349
     36 H5         18.4286   13.7496   -1.2690 H           1 MOL       0.2101
     37 H6         19.4438    3.1908    1.5416 H           1 MOL       0.0238
     38 H7         21.2107    3.3014    1.4574 H           1 MOL       0.0238
     39 H8         20.2035    4.6733    0.9782 H           1 MOL       0.0238
     40 H9         20.3495    3.4052    5.1481 H           1 MOL       0.0238
     41 H10        21.1108    2.4305    3.8835 H           1 MOL       0.0238
     42 H11        19.3551    2.5696    3.9489 H           1 MOL       0.0238
     43 H12        19.0505    6.1517    2.9282 H           1 MOL       0.0238
     44 H13        19.0037    5.4575    4.5389 H           1 MOL       0.0238
     45 H14        18.1594    4.6581    3.2100 H           1 MOL       0.0238
     46 H15        23.5086    5.1236    4.3469 H           1 MOL       0.2015
     47 H16        23.1422    3.8240    3.3763 H           1 MOL       0.2015
     48 H17        22.4454    3.9751    4.8890 H           1 MOL       0.2015
     49 H18        19.1534    8.3543    0.4462 H           1 MOL       0.0611
     50 H19        18.8241    7.8735   -1.2181 H           1 MOL       0.0611
     51 H20        19.8486   10.2647   -1.8401 H           1 MOL       0.0648
     52 H21        19.1763   10.5888    1.1283 H           1 MOL       0.0648
     53 H22        21.1041   11.5721   -0.6650 H           1 MOL       0.2100
     54 H23        18.0482   12.5863    0.7630 H           1 MOL       0.0676
     55 H24        17.2187   12.0595   -1.9303 H           1 MOL       0.0996
     56 H25        12.4018    8.8707    2.8956 H           1 MOL       0.1820
     57 H26        12.0753    9.8475    1.5681 H           1 MOL       0.1820
@<TRIPOS>BOND
     1     1     3   1
     2     9     1  am
     3     1    10   2
     4     2     8  ar
     5    13     2  ar
     6     3     7   1
     7     3    17   1
     8     4     5  ar
     9     4    13  ar
    10    29     4   1
    11     5     6  ar
    12    30     5   1
    13     6     8  ar
    14     6    31   1
    15     7    14   1
    16     7    15   1
    17     7    16   1
    18    18     9  am
    19    29    11   1
    20    11    30   2
    21    26    12   1
    22    18    19   2
    23    18    20   2
    24    21    18   1
    25    22    21   1
    26    23    22   1
    27    23    24   1
    28    28    23   1
    29    24    25   1
    30    26    24   1
    31    27    26   1
    32    27    28   1
    33    27    29   1
    34     2    32   1
    35     3    33   1
    36     9    34   1
    37    11    35   1
    38    12    36   1
    39    14    37   1
    40    14    38   1
    41    14    39   1
    42    15    40   1
    43    15    41   1
    44    15    42   1
    45    16    43   1
    46    16    44   1
    47    16    45   1
    48    17    46   1
    49    17    47   1
    50    17    48   1
    51    22    49   1
    52    22    50   1
    53    23    51   1
    54    24    52   1
    55    25    53   1
    56    26    54   1
    57    27    55   1
    58    31    56   1
    59    31    57   1
@<TRIPOS>SUBSTRUCTURE
     1  MOL      1

