@<TRIPOS>MOLECULE
3coy_ligand_079
    57    59
SMALL
GAST_HUCK
****
This file was generated by PARSER (from files_GN.cpp)

@<TRIPOS>ATOM
      1 C1         19.2641    6.3394    4.0291 C.2         1 MOL       0.2465
      2 C2         12.6764    9.3566    0.5553 C.ar        1 MOL       0.0533
      3 C3         19.4239    4.9394    3.6566 C.3         1 MOL       0.0714
      4 C4         13.8675   10.3909    2.2953 C.ar        1 MOL       0.1613
      5 C5         12.9404    9.9389    3.2283 C.ar        1 MOL       0.1045
      6 C6         11.8494    9.1734    2.7880 C.ar        1 MOL       0.1298
      7 C7         20.8302    4.4623    3.0952 C.3         1 MOL       0.0226
      8 N1         11.7654    8.8957    1.4528 N.ar        1 MOL      -0.2698
      9 N2         18.1006    6.9183    3.7760 N.am        1 MOL      -0.1294
     10 O1         20.1644    6.9262    4.6258 O.2         1 MOL      -0.3891
     11 C8         14.4579   11.0597    4.2607 C.2         1 MOL       0.1123
     12 O2         16.5384   13.7054    3.5259 O.3         1 MOL      -0.3836
     13 N3         13.7323   10.1019    0.9777 N.ar        1 MOL      -0.2714
     14 C9         21.6466    5.6531    2.4867 C.3         1 MOL      -0.0527
     15 C10        21.7105    3.7783    4.1934 C.3         1 MOL      -0.0527
     16 C11        20.5871    3.4215    1.9465 C.3         1 MOL      -0.0527
     17 N4         18.9613    4.1408    4.8053 N.4         1 MOL       0.2383
     18 S1         17.6197    8.4677    4.2021 S.o2        1 MOL       0.1859
     19 O1A        17.5329    8.6428    5.8800 O.2         1 MOL      -0.1218
     20 O2A        16.1078    8.6824    3.4620 O.2         1 MOL      -0.1218
     21 O5         18.7222    9.6059    3.5984 O.3         1 MOL      -0.2161
     22 C25        18.9903    9.8112    2.2054 C.3         1 MOL       0.1073
     23 C24        18.1244   10.9667    1.6328 C.3         1 MOL       0.1161
     24 C23        18.2753   12.3192    2.3807 C.3         1 MOL       0.1146
     25 O3         18.3796   13.4124    1.4576 O.3         1 MOL      -0.3864
     26 C22        16.9848   12.3858    3.2171 C.3         1 MOL       0.1385
     27 C21        15.9816   11.6275    2.3244 C.3         1 MOL       0.2010
     28 O4         16.7411   10.5673    1.7216 O.3         1 MOL      -0.3367
     29 N9         14.8242   11.0682    2.9592 N.pl3       1 MOL      -0.1919
     30 N7         13.3208   10.3586    4.4419 N.2         1 MOL      -0.2958
     31 N6         10.9078    8.7337    3.6340 N.pl3       1 MOL      -0.3152
     32 H1         12.5736    9.1386   -0.4369 H           1 MOL       0.0996
     33 H2         18.6882    4.7317    2.8689 H           1 MOL       0.1104
     34 H3         17.4253    6.3825    3.3342 H           1 MOL       0.2167
     35 H4         14.9730   11.4948    5.0262 H           1 MOL       0.1349
     36 H5         16.3586   14.1250    2.6568 H           1 MOL       0.2101
     37 H6         22.5760    5.2961    2.0192 H           1 MOL       0.0238
     38 H7         21.9181    6.3695    3.2696 H           1 MOL       0.0238
     39 H8         21.0638    6.1799    1.7262 H           1 MOL       0.0238
     40 H9         21.2394    2.8667    4.5651 H           1 MOL       0.0238
     41 H10        21.8683    4.4510    5.0377 H           1 MOL       0.0238
     42 H11        22.6927    3.4994    3.7963 H           1 MOL       0.0238
     43 H12        20.0549    3.8840    1.1097 H           1 MOL       0.0238
     44 H13        19.9866    2.5785    2.3034 H           1 MOL       0.0238
     45 H14        21.5303    3.0271    1.5589 H           1 MOL       0.0238
     46 H15        18.0052    4.4152    5.0544 H           1 MOL       0.2015
     47 H16        19.5715    4.2866    5.6153 H           1 MOL       0.2015
     48 H17        18.9648    3.1540    4.5445 H           1 MOL       0.2015
     49 H18        18.7920    8.8960    1.6387 H           1 MOL       0.0611
     50 H19        20.0469   10.0553    2.0863 H           1 MOL       0.0611
     51 H20        18.3884   11.0892    0.5755 H           1 MOL       0.0648
     52 H21        19.1593   12.3372    3.0292 H           1 MOL       0.0648
     53 H22        17.4984   13.4893    1.0298 H           1 MOL       0.2100
     54 H23        17.1481   11.8396    4.1507 H           1 MOL       0.0676
     55 H24        15.6419   12.2993    1.5282 H           1 MOL       0.0996
     56 H25        10.1439    8.2396    3.2988 H           1 MOL       0.1820
     57 H26        10.9711    8.9423    4.5798 H           1 MOL       0.1820
@<TRIPOS>BOND
     1     1     3   1
     2     9     1  am
     3     1    10   2
     4     2     8  ar
     5    13     2  ar
     6     3     7   1
     7     3    17   1
     8     4     5  ar
     9     4    13  ar
    10    29     4   1
    11     5     6  ar
    12    30     5   1
    13     6     8  ar
    14     6    31   1
    15     7    14   1
    16     7    15   1
    17     7    16   1
    18    18     9  am
    19    29    11   1
    20    11    30   2
    21    26    12   1
    22    18    19   2
    23    18    20   2
    24    21    18   1
    25    22    21   1
    26    23    22   1
    27    23    24   1
    28    28    23   1
    29    24    25   1
    30    26    24   1
    31    27    26   1
    32    27    28   1
    33    27    29   1
    34     2    32   1
    35     3    33   1
    36     9    34   1
    37    11    35   1
    38    12    36   1
    39    14    37   1
    40    14    38   1
    41    14    39   1
    42    15    40   1
    43    15    41   1
    44    15    42   1
    45    16    43   1
    46    16    44   1
    47    16    45   1
    48    17    46   1
    49    17    47   1
    50    17    48   1
    51    22    49   1
    52    22    50   1
    53    23    51   1
    54    24    52   1
    55    25    53   1
    56    26    54   1
    57    27    55   1
    58    31    56   1
    59    31    57   1
@<TRIPOS>SUBSTRUCTURE
     1  MOL      1

