@<TRIPOS>MOLECULE
3coy_ligand_081
    57    59
SMALL
GAST_HUCK
****
This file was generated by PARSER (from files_GN.cpp)

@<TRIPOS>ATOM
      1 C1         16.3208    9.2822    6.5730 C.2         1 MOL       0.2465
      2 C2         15.1534   10.3556    1.3152 C.ar        1 MOL       0.0533
      3 C3         15.6017    8.6338    7.6695 C.3         1 MOL       0.0714
      4 C4         17.0204   10.2606   -0.1276 C.ar        1 MOL       0.1613
      5 C5         16.3034   10.9406   -1.1117 C.ar        1 MOL       0.1045
      6 C6         14.9862   11.3521   -0.8371 C.ar        1 MOL       0.1298
      7 C7         14.0384    8.3745    7.4410 C.3         1 MOL       0.0226
      8 N1         14.4500   11.0403    0.3730 N.ar        1 MOL      -0.2698
      9 N2         16.8469    8.5519    5.6011 N.am        1 MOL      -0.1294
     10 O1         16.3978   10.5037    6.5545 O.2         1 MOL      -0.3891
     11 C8         18.2351   10.4285   -1.8990 C.2         1 MOL       0.1123
     12 O2         21.6722    8.6222   -0.4084 O.3         1 MOL      -0.3836
     13 N3         16.4363    9.9746    1.0658 N.ar        1 MOL      -0.2714
     14 C9         13.6499    6.8675    7.6329 C.3         1 MOL      -0.0527
     15 C10        13.2148    9.2021    8.4886 C.3         1 MOL      -0.0527
     16 C11        13.5097    8.7960    6.0221 C.3         1 MOL      -0.0527
     17 N4         16.3826    7.4444    8.0745 N.4         1 MOL       0.2383
     18 S1         17.5560    9.1407    4.1906 S.o2        1 MOL       0.1859
     19 O1A        16.9495   10.6608    3.7631 O.2         1 MOL      -0.1218
     20 O2A        17.2434    7.9812    3.0001 O.2         1 MOL      -0.1218
     21 O5         19.2411    9.2742    4.3415 O.3         1 MOL      -0.2161
     22 C25        20.0614   10.1110    3.5124 C.3         1 MOL       0.1073
     23 C24        20.3255    9.4897    2.1174 C.3         1 MOL       0.1161
     24 C23        21.0763   10.3993    1.1252 C.3         1 MOL       0.1146
     25 O3         22.4767   10.4759    1.3853 O.3         1 MOL      -0.3864
     26 C22        20.7515    9.7022   -0.2032 C.3         1 MOL       0.1385
     27 C21        19.2916    9.2049    0.0143 C.3         1 MOL       0.2010
     28 O4         19.0991    9.1761    1.4456 O.3         1 MOL      -0.3367
     29 N9         18.2435    9.9740   -0.6240 N.pl3       1 MOL      -0.1919
     30 N7         17.0689   11.0333   -2.2042 N.2         1 MOL      -0.2958
     31 N6         14.2475   12.0286   -1.7307 N.pl3       1 MOL      -0.3152
     32 H1         14.7178   10.1308    2.2078 H           1 MOL       0.0996
     33 H2         15.7232    9.2932    8.5367 H           1 MOL       0.1104
     34 H3         16.7470    7.5897    5.6598 H           1 MOL       0.2167
     35 H4         18.9987   10.3207   -2.5722 H           1 MOL       0.1349
     36 H5         21.1462    7.8235   -0.6354 H           1 MOL       0.2101
     37 H6         12.5771    6.7099    7.4975 H           1 MOL       0.0238
     38 H7         13.9069    6.5229    8.6350 H           1 MOL       0.0238
     39 H8         14.1721    6.2422    6.9078 H           1 MOL       0.0238
     40 H9         13.3989   10.2719    8.3582 H           1 MOL       0.0238
     41 H10        13.5031    8.9288    9.5062 H           1 MOL       0.0238
     42 H11        12.1418    9.0307    8.3865 H           1 MOL       0.0238
     43 H12        13.9901    8.2081    5.2392 H           1 MOL       0.0238
     44 H13        13.6998    9.8528    5.8296 H           1 MOL       0.0238
     45 H14        12.4291    8.6352    5.9348 H           1 MOL       0.0238
     46 H15        17.3520    7.7218    8.2392 H           1 MOL       0.2015
     47 H16        16.3588    6.7357    7.3372 H           1 MOL       0.2015
     48 H17        15.9975    7.0532    8.9372 H           1 MOL       0.2015
     49 H18        21.0169   10.2410    4.0246 H           1 MOL       0.0611
     50 H19        19.6050   11.0970    3.4100 H           1 MOL       0.0611
     51 H20        20.8972    8.5629    2.2597 H           1 MOL       0.0648
     52 H21        20.6538   11.4086    1.1251 H           1 MOL       0.0648
     53 H22        22.5784   11.1892    2.0556 H           1 MOL       0.2100
     54 H23        20.8502   10.3928   -1.0390 H           1 MOL       0.0676
     55 H24        19.1990    8.1809   -0.3595 H           1 MOL       0.0996
     56 H25        13.3423   12.2945   -1.5002 H           1 MOL       0.1820
     57 H26        14.6165   12.2618   -2.5947 H           1 MOL       0.1820
@<TRIPOS>BOND
     1     1     3   1
     2     9     1  am
     3     1    10   2
     4     2     8  ar
     5    13     2  ar
     6     3     7   1
     7     3    17   1
     8     4     5  ar
     9     4    13  ar
    10    29     4   1
    11     5     6  ar
    12    30     5   1
    13     6     8  ar
    14     6    31   1
    15     7    14   1
    16     7    15   1
    17     7    16   1
    18    18     9  am
    19    29    11   1
    20    11    30   2
    21    26    12   1
    22    18    19   2
    23    18    20   2
    24    21    18   1
    25    22    21   1
    26    23    22   1
    27    23    24   1
    28    28    23   1
    29    24    25   1
    30    26    24   1
    31    27    26   1
    32    27    28   1
    33    27    29   1
    34     2    32   1
    35     3    33   1
    36     9    34   1
    37    11    35   1
    38    12    36   1
    39    14    37   1
    40    14    38   1
    41    14    39   1
    42    15    40   1
    43    15    41   1
    44    15    42   1
    45    16    43   1
    46    16    44   1
    47    16    45   1
    48    17    46   1
    49    17    47   1
    50    17    48   1
    51    22    49   1
    52    22    50   1
    53    23    51   1
    54    24    52   1
    55    25    53   1
    56    26    54   1
    57    27    55   1
    58    31    56   1
    59    31    57   1
@<TRIPOS>SUBSTRUCTURE
     1  MOL      1

