@<TRIPOS>MOLECULE
3coy_ligand_078
    57    59
SMALL
GAST_HUCK
****
This file was generated by PARSER (from files_GN.cpp)

@<TRIPOS>ATOM
      1 C1         15.0083   11.6814    2.9260 C.2         1 MOL       0.2465
      2 C2         15.0332   12.4398   -1.8817 C.ar        1 MOL       0.0533
      3 C3         13.8791   11.1117    2.1700 C.3         1 MOL       0.0714
      4 C4         16.7512   10.9048   -1.3800 C.ar        1 MOL       0.1613
      5 C5         15.9260    9.8529   -1.7722 C.ar        1 MOL       0.1045
      6 C6         14.6213   10.1206   -2.2212 C.ar        1 MOL       0.1298
      7 C7         13.5396    9.5803    2.4924 C.3         1 MOL       0.0226
      8 N1         14.2164   11.4204   -2.2637 N.ar        1 MOL      -0.2698
      9 N2         16.2282   11.1760    2.7981 N.am        1 MOL      -0.1294
     10 O1         14.8044   12.5957    3.7158 O.2         1 MOL      -0.3891
     11 C8         17.8209    9.0400   -1.1973 C.2         1 MOL       0.1123
     12 O2         19.2176   13.3356   -1.3813 O.3         1 MOL      -0.3836
     13 N3         16.2914   12.1784   -1.4339 N.ar        1 MOL      -0.2714
     14 C9         14.4776    8.6188    1.6876 C.3         1 MOL      -0.0527
     15 C10        13.6778    9.2479    4.0178 C.3         1 MOL      -0.0527
     16 C11        12.0713    9.2106    2.0702 C.3         1 MOL      -0.0527
     17 N4         12.6883   11.9866    2.3354 N.4         1 MOL       0.2383
     18 S1         17.5073   11.4186    3.8761 S.o2        1 MOL       0.1859
     19 O1A        17.8858    9.9366    4.5861 O.2         1 MOL      -0.1218
     20 O2A        17.0988   12.5591    5.0483 O.2         1 MOL      -0.1218
     21 O5         18.8591   11.9959    3.0373 O.3         1 MOL      -0.2161
     22 C25        20.1138   11.3374    2.8639 C.3         1 MOL       0.1073
     23 C24        20.4702   11.2717    1.3556 C.3         1 MOL       0.1161
     24 C23        20.4102   12.6467    0.6414 C.3         1 MOL       0.1146
     25 O3         21.5930   12.9012   -0.1203 O.3         1 MOL      -0.3864
     26 C22        19.1506   12.5042   -0.2363 C.3         1 MOL       0.1385
     27 C21        19.1495   10.9962   -0.5492 C.3         1 MOL       0.2010
     28 O4         19.5288   10.4046    0.7042 O.3         1 MOL      -0.3367
     29 N9         17.9346   10.3753   -1.0107 N.pl3       1 MOL      -0.1919
     30 N7         16.6011    8.7086   -1.6530 N.2         1 MOL      -0.2958
     31 N6         13.7862    9.1382   -2.5911 N.pl3       1 MOL      -0.3152
     32 H1         14.7035   13.4014   -1.9310 H           1 MOL       0.0996
     33 H2         14.1285   11.2035    1.1114 H           1 MOL       0.1104
     34 H3         16.3584   10.4972    2.1290 H           1 MOL       0.2167
     35 H4         18.5615    8.3570   -1.0237 H           1 MOL       0.1349
     36 H5         18.2924   13.4761   -1.6813 H           1 MOL       0.2101
     37 H6         14.1792    7.5767    1.8212 H           1 MOL       0.0238
     38 H7         15.5134    8.6994    2.0070 H           1 MOL       0.0238
     39 H8         14.4280    8.8395    0.6205 H           1 MOL       0.0238
     40 H9         13.0641    9.9229    4.6138 H           1 MOL       0.0238
     41 H10        14.7140    9.3472    4.3506 H           1 MOL       0.0238
     42 H11        13.3615    8.2262    4.2275 H           1 MOL       0.0238
     43 H12        11.9104    9.4405    1.0154 H           1 MOL       0.0238
     44 H13        11.3392    9.7671    2.6610 H           1 MOL       0.0238
     45 H14        11.8666    8.1518    2.2239 H           1 MOL       0.0238
     46 H15        12.9449   12.9648    2.2021 H           1 MOL       0.2015
     47 H16        12.3082   11.8706    3.2803 H           1 MOL       0.2015
     48 H17        11.9764   11.7319    1.6475 H           1 MOL       0.2015
     49 H18        20.1076   10.3298    3.2828 H           1 MOL       0.0611
     50 H19        20.8734   11.9204    3.3881 H           1 MOL       0.0611
     51 H20        21.4670   10.8330    1.2569 H           1 MOL       0.0648
     52 H21        20.2947   13.4852    1.3300 H           1 MOL       0.0648
     53 H22        21.6936   12.1385   -0.7226 H           1 MOL       0.2100
     54 H23        18.2708   12.7720    0.3550 H           1 MOL       0.0676
     55 H24        19.9308   10.7820   -1.2866 H           1 MOL       0.0996
     56 H25        12.8890    9.3509   -2.8897 H           1 MOL       0.1820
     57 H26        14.0736    8.2150   -2.5397 H           1 MOL       0.1820
@<TRIPOS>BOND
     1     1     3   1
     2     9     1  am
     3     1    10   2
     4     2     8  ar
     5    13     2  ar
     6     3     7   1
     7     3    17   1
     8     4     5  ar
     9     4    13  ar
    10    29     4   1
    11     5     6  ar
    12    30     5   1
    13     6     8  ar
    14     6    31   1
    15     7    14   1
    16     7    15   1
    17     7    16   1
    18    18     9  am
    19    29    11   1
    20    11    30   2
    21    26    12   1
    22    18    19   2
    23    18    20   2
    24    21    18   1
    25    22    21   1
    26    23    22   1
    27    23    24   1
    28    28    23   1
    29    24    25   1
    30    26    24   1
    31    27    26   1
    32    27    28   1
    33    27    29   1
    34     2    32   1
    35     3    33   1
    36     9    34   1
    37    11    35   1
    38    12    36   1
    39    14    37   1
    40    14    38   1
    41    14    39   1
    42    15    40   1
    43    15    41   1
    44    15    42   1
    45    16    43   1
    46    16    44   1
    47    16    45   1
    48    17    46   1
    49    17    47   1
    50    17    48   1
    51    22    49   1
    52    22    50   1
    53    23    51   1
    54    24    52   1
    55    25    53   1
    56    26    54   1
    57    27    55   1
    58    31    56   1
    59    31    57   1
@<TRIPOS>SUBSTRUCTURE
     1  MOL      1

