@<TRIPOS>MOLECULE
3coy_ligand_055
    57    59
SMALL
GAST_HUCK
****
This file was generated by PARSER (from files_GN.cpp)

@<TRIPOS>ATOM
      1 C1         16.9929    9.4593    6.0138 C.2         1 MOL       0.2465
      2 C2         23.1356    8.3806    4.8056 C.ar        1 MOL       0.0533
      3 C3         15.9140    9.3409    6.9916 C.3         1 MOL       0.0714
      4 C4         22.2796    7.9080    2.6610 C.ar        1 MOL       0.1613
      5 C5         22.6134    6.5617    2.8104 C.ar        1 MOL       0.1045
      6 C6         23.2233    6.1401    4.0055 C.ar        1 MOL       0.1298
      7 C7         14.4173    9.5179    6.4638 C.3         1 MOL       0.0226
      8 N1         23.4755    7.0711    4.9673 N.ar        1 MOL      -0.2698
      9 N2         17.4118    8.4310    5.2903 N.am        1 MOL      -0.1294
     10 O1         17.4749   10.5746    5.8285 O.2         1 MOL      -0.3891
     11 C8         21.7587    6.8366    0.8577 C.2         1 MOL       0.1123
     12 O2         19.6384    8.7477   -0.9904 O.3         1 MOL      -0.3836
     13 N3         22.5558    8.8006    3.6478 N.ar        1 MOL      -0.2714
     14 C9         13.6184    8.1680    6.4633 C.3         1 MOL      -0.0527
     15 C10        13.6454   10.5090    7.4040 C.3         1 MOL      -0.0527
     16 C11        14.3436   10.1081    5.0121 C.3         1 MOL      -0.0527
     17 N4         16.1464    8.1102    7.7779 N.4         1 MOL       0.2383
     18 S1         18.7751    8.4613    4.2819 S.o2        1 MOL       0.1859
     19 O1A        18.7855    7.0183    3.3967 O.2         1 MOL      -0.1218
     20 O2A        20.1628    8.5782    5.2609 O.2         1 MOL      -0.1218
     21 O5         18.6699    9.7966    3.2309 O.3         1 MOL      -0.2161
     22 C25        19.5441   10.9399    3.1606 C.3         1 MOL       0.1073
     23 C24        20.1925   11.1400    1.7541 C.3         1 MOL       0.1161
     24 C23        19.3346   10.6859    0.5476 C.3         1 MOL       0.1146
     25 O3         19.5776   11.5000   -0.6071 O.3         1 MOL      -0.3864
     26 C22        19.7956    9.2293    0.3493 C.3         1 MOL       0.1385
     27 C21        21.2761    9.2691    0.8047 C.3         1 MOL       0.2010
     28 O4         21.4298   10.4196    1.6557 O.3         1 MOL      -0.3367
     29 N9         21.7270    8.0562    1.4405 N.pl3       1 MOL      -0.1919
     30 N7         22.2869    5.9128    1.6833 N.2         1 MOL      -0.2958
     31 N6         23.6047    4.8675    4.1909 N.pl3       1 MOL      -0.3152
     32 H1         23.3494    9.0570    5.5392 H           1 MOL       0.0996
     33 H2         16.1125   10.1259    7.7340 H           1 MOL       0.1104
     34 H3         16.9838    7.5675    5.4179 H           1 MOL       0.2167
     35 H4         21.4391    6.6297   -0.0908 H           1 MOL       0.1349
     36 H5         18.6836    8.5265   -1.0345 H           1 MOL       0.2101
     37 H6         12.6060    8.3141    6.0687 H           1 MOL       0.0238
     38 H7         13.5190    7.7689    7.4789 H           1 MOL       0.0238
     39 H8         14.1254    7.4236    5.8457 H           1 MOL       0.0238
     40 H9         14.1084   11.5011    7.3848 H           1 MOL       0.0238
     41 H10        13.6533   10.1499    8.4398 H           1 MOL       0.0238
     42 H11        12.6009   10.6220    7.0947 H           1 MOL       0.0238
     43 H12        14.7931    9.4206    4.2974 H           1 MOL       0.0238
     44 H13        14.8688   11.0621    4.9580 H           1 MOL       0.0238
     45 H14        13.3077   10.2779    4.7063 H           1 MOL       0.0238
     46 H15        17.0928    8.1318    8.1760 H           1 MOL       0.2015
     47 H16        16.0571    7.2891    7.1718 H           1 MOL       0.2015
     48 H17        15.4644    8.0476    8.5409 H           1 MOL       0.2015
     49 H18        20.3397   10.8826    3.9162 H           1 MOL       0.0611
     50 H19        18.9285   11.8135    3.3919 H           1 MOL       0.0611
     51 H20        20.4321   12.2009    1.6512 H           1 MOL       0.0648
     52 H21        18.2633   10.7303    0.7615 H           1 MOL       0.0648
     53 H22        20.5407   11.4464   -0.7962 H           1 MOL       0.2100
     54 H23        19.2208    8.5687    1.0164 H           1 MOL       0.0676
     55 H24        21.9118    9.4469   -0.0697 H           1 MOL       0.0996
     56 H25        24.0149    4.6097    5.0317 H           1 MOL       0.1820
     57 H26        23.5050    4.2132    3.4792 H           1 MOL       0.1820
@<TRIPOS>BOND
     1     1     3   1
     2     9     1  am
     3     1    10   2
     4     2     8  ar
     5    13     2  ar
     6     3     7   1
     7     3    17   1
     8     4     5  ar
     9     4    13  ar
    10    29     4   1
    11     5     6  ar
    12    30     5   1
    13     6     8  ar
    14     6    31   1
    15     7    14   1
    16     7    15   1
    17     7    16   1
    18    18     9  am
    19    29    11   1
    20    11    30   2
    21    26    12   1
    22    18    19   2
    23    18    20   2
    24    21    18   1
    25    22    21   1
    26    23    22   1
    27    23    24   1
    28    28    23   1
    29    24    25   1
    30    26    24   1
    31    27    26   1
    32    27    28   1
    33    27    29   1
    34     2    32   1
    35     3    33   1
    36     9    34   1
    37    11    35   1
    38    12    36   1
    39    14    37   1
    40    14    38   1
    41    14    39   1
    42    15    40   1
    43    15    41   1
    44    15    42   1
    45    16    43   1
    46    16    44   1
    47    16    45   1
    48    17    46   1
    49    17    47   1
    50    17    48   1
    51    22    49   1
    52    22    50   1
    53    23    51   1
    54    24    52   1
    55    25    53   1
    56    26    54   1
    57    27    55   1
    58    31    56   1
    59    31    57   1
@<TRIPOS>SUBSTRUCTURE
     1  MOL      1

