@<TRIPOS>MOLECULE
3coy_ligand_003
    57    59
SMALL
GAST_HUCK
****
This file was generated by PARSER (from files_GN.cpp)

@<TRIPOS>ATOM
      1 C1         15.6369    9.8024    5.2216 C.2         1 MOL       0.2465
      2 C2         14.7210   10.5670   -5.3625 C.ar        1 MOL       0.0533
      3 C3         15.7892    9.4223    6.6226 C.3         1 MOL       0.0714
      4 C4         15.0541    9.7876   -3.1600 C.ar        1 MOL       0.1613
      5 C5         13.7845    9.2002   -3.1674 C.ar        1 MOL       0.1045
      6 C6         12.9802    9.3207   -4.3145 C.ar        1 MOL       0.1298
      7 C7         14.4402    9.0111    7.3376 C.3         1 MOL       0.0226
      8 N1         13.4876    9.9965   -5.3818 N.ar        1 MOL      -0.2698
      9 N2         15.5084   11.0843    4.9089 N.am        1 MOL      -0.1294
     10 O1         15.6161    8.9347    4.3565 O.2         1 MOL      -0.3891
     11 C8         14.7236    8.7764   -1.2846 C.2         1 MOL       0.1123
     12 O2         18.9925   10.5926   -2.5799 O.3         1 MOL      -0.3836
     13 N3         15.5025   10.4563   -4.2579 N.ar        1 MOL      -0.2714
     14 C9         13.4218   10.1996    7.3124 C.3         1 MOL      -0.0527
     15 C10        13.7681    7.7652    6.6645 C.3         1 MOL      -0.0527
     16 C11        14.7247    8.6546    8.8357 C.3         1 MOL      -0.0527
     17 N4         16.8630    8.4109    6.7357 N.4         1 MOL       0.2383
     18 S1         15.4550   11.6953    3.3422 S.o2        1 MOL       0.1859
     19 O1A        15.3312   13.3808    3.3484 O.2         1 MOL      -0.1218
     20 O2A        14.1154   11.0226    2.5552 O.2         1 MOL      -0.1218
     21 O5         16.8332   11.1527    2.5199 O.3         1 MOL      -0.2161
     22 C25        17.5928   11.9353    1.6015 C.3         1 MOL       0.1073
     23 C24        17.8442   11.1709    0.2764 C.3         1 MOL       0.1161
     24 C23        17.8819   12.0684   -0.9692 C.3         1 MOL       0.1146
     25 O3         19.0427   12.8873   -1.0948 O.3         1 MOL      -0.3864
     26 C22        17.7204   11.0489   -2.1084 C.3         1 MOL       0.1385
     27 C21        16.9242    9.8849   -1.4402 C.3         1 MOL       0.2010
     28 O4         16.7896   10.2608   -0.0519 O.3         1 MOL      -0.3367
     29 N9         15.6197    9.5332   -1.9616 N.pl3       1 MOL      -0.1919
     30 N7         13.5979    8.5805   -1.9974 N.2         1 MOL      -0.2958
     31 N6         11.7533    8.7894   -4.3900 N.pl3       1 MOL      -0.3152
     32 H1         15.0578   11.0674   -6.1831 H           1 MOL       0.0996
     33 H2         16.1870   10.2869    7.1617 H           1 MOL       0.1104
     34 H3         15.4822   11.7277    5.6339 H           1 MOL       0.2167
     35 H4         14.8625    8.4027   -0.3444 H           1 MOL       0.1349
     36 H5         19.0326   10.8575   -3.5187 H           1 MOL       0.2101
     37 H6         12.5294    9.9638    7.8941 H           1 MOL       0.0238
     38 H7         13.1026   10.4240    6.2934 H           1 MOL       0.0238
     39 H8         13.8710   11.1005    7.7331 H           1 MOL       0.0238
     40 H9         14.4389    6.9027    6.6783 H           1 MOL       0.0238
     41 H10        13.4993    7.9718    5.6246 H           1 MOL       0.0238
     42 H11        12.8513    7.4853    7.1933 H           1 MOL       0.0238
     43 H12        15.2067    9.4934    9.3411 H           1 MOL       0.0238
     44 H13        15.3778    7.7821    8.9144 H           1 MOL       0.0238
     45 H14        13.7995    8.4249    9.3700 H           1 MOL       0.0238
     46 H15        17.6356    8.6643    6.1169 H           1 MOL       0.2015
     47 H16        16.5122    7.4889    6.4673 H           1 MOL       0.2015
     48 H17        17.2155    8.3800    7.6946 H           1 MOL       0.2015
     49 H18        18.5511   12.1641    2.0673 H           1 MOL       0.0611
     50 H19        17.0857   12.8796    1.4082 H           1 MOL       0.0611
     51 H20        18.7831   10.6018    0.3697 H           1 MOL       0.0648
     52 H21        17.0048   12.7206   -0.9632 H           1 MOL       0.0648
     53 H22        18.8267   13.4546   -1.8658 H           1 MOL       0.2100
     54 H23        17.1943   11.5463   -2.9254 H           1 MOL       0.0676
     55 H24        17.5257    8.9732   -1.4623 H           1 MOL       0.0996
     56 H25        11.2364    8.8720   -5.2058 H           1 MOL       0.1820
     57 H26        11.3843    8.3103   -3.6370 H           1 MOL       0.1820
@<TRIPOS>BOND
     1     1     3   1
     2     9     1  am
     3     1    10   2
     4     2     8  ar
     5    13     2  ar
     6     3     7   1
     7     3    17   1
     8     4     5  ar
     9     4    13  ar
    10    29     4   1
    11     5     6  ar
    12    30     5   1
    13     6     8  ar
    14     6    31   1
    15     7    14   1
    16     7    15   1
    17     7    16   1
    18    18     9  am
    19    29    11   1
    20    11    30   2
    21    26    12   1
    22    18    19   2
    23    18    20   2
    24    21    18   1
    25    22    21   1
    26    23    22   1
    27    23    24   1
    28    28    23   1
    29    24    25   1
    30    26    24   1
    31    27    26   1
    32    27    28   1
    33    27    29   1
    34     2    32   1
    35     3    33   1
    36     9    34   1
    37    11    35   1
    38    12    36   1
    39    14    37   1
    40    14    38   1
    41    14    39   1
    42    15    40   1
    43    15    41   1
    44    15    42   1
    45    16    43   1
    46    16    44   1
    47    16    45   1
    48    17    46   1
    49    17    47   1
    50    17    48   1
    51    22    49   1
    52    22    50   1
    53    23    51   1
    54    24    52   1
    55    25    53   1
    56    26    54   1
    57    27    55   1
    58    31    56   1
    59    31    57   1
@<TRIPOS>SUBSTRUCTURE
     1  MOL      1

