@<TRIPOS>MOLECULE
3coy_ligand_057
    57    59
SMALL
GAST_HUCK
****
This file was generated by PARSER (from files_GN.cpp)

@<TRIPOS>ATOM
      1 C1         14.0430   11.1874    0.6865 C.2         1 MOL       0.2465
      2 C2         16.8759   13.1486    3.3650 C.ar        1 MOL       0.0533
      3 C3         13.1254   10.9259    1.8014 C.3         1 MOL       0.0714
      4 C4         18.2666   11.2513    3.4757 C.ar        1 MOL       0.1613
      5 C5         17.4696   10.7081    4.4827 C.ar        1 MOL       0.1045
      6 C6         16.3623   11.4396    4.9444 C.ar        1 MOL       0.1298
      7 C7         13.0981    9.4267    2.3884 C.3         1 MOL       0.0226
      8 N1         16.1039   12.6441    4.3598 N.ar        1 MOL      -0.2698
      9 N2         15.3599   11.1095    0.8329 N.am        1 MOL      -0.1294
     10 O1         13.5543   11.4211   -0.4158 O.2         1 MOL      -0.3891
     11 C8         19.0806    9.3455    4.0884 C.2         1 MOL       0.1123
     12 O2         20.9908    8.2071    1.6329 O.3         1 MOL      -0.3836
     13 N3         17.9663   12.4576    2.9329 N.ar        1 MOL      -0.2714
     14 C9         13.6753    9.3278    3.8373 C.3         1 MOL      -0.0527
     15 C10        11.6189    8.9225    2.4589 C.3         1 MOL      -0.0527
     16 C11        13.8973    8.3963    1.5164 C.3         1 MOL      -0.0527
     17 N4         13.3441   11.9646    2.8192 N.4         1 MOL       0.2383
     18 S1         16.4581   11.2633   -0.4416 S.o2        1 MOL       0.1859
     19 O1A        16.1582   12.6641   -1.3366 O.2         1 MOL      -0.1218
     20 O2A        16.1963    9.9687   -1.4943 O.2         1 MOL      -0.1218
     21 O5         18.0583   11.1809    0.1011 O.3         1 MOL      -0.2161
     22 C25        19.1463   11.8977   -0.4875 C.3         1 MOL       0.1073
     23 C24        20.4896   11.5686    0.2173 C.3         1 MOL       0.1161
     24 C23        20.9786   10.1130    0.0314 C.3         1 MOL       0.1146
     25 O3         22.4024   10.0483    0.1484 O.3         1 MOL      -0.3864
     26 C22        20.3213    9.4007    1.2203 C.3         1 MOL       0.1385
     27 C21        20.3521   10.5049    2.3065 C.3         1 MOL       0.2010
     28 O4         20.3753   11.7779    1.6299 O.3         1 MOL      -0.3367
     29 N9         19.2685   10.3833    3.2414 N.pl3       1 MOL      -0.1919
     30 N7         17.9849    9.5260    4.8473 N.2         1 MOL      -0.2958
     31 N6         15.5691   10.9738    5.9168 N.pl3       1 MOL      -0.3152
     32 H1         16.6518   14.0578    2.9549 H           1 MOL       0.0996
     33 H2         12.1292   11.1580    1.4355 H           1 MOL       0.1104
     34 H3         15.7129   10.8758    1.7055 H           1 MOL       0.2167
     35 H4         19.6839    8.5258    4.1560 H           1 MOL       0.1349
     36 H5         20.4064    7.4727    1.3494 H           1 MOL       0.2101
     37 H6         13.6284    8.3136    4.2308 H           1 MOL       0.0238
     38 H7         13.1187    9.9688    4.5352 H           1 MOL       0.0238
     39 H8         14.7171    9.6373    3.8272 H           1 MOL       0.0238
     40 H9         11.1911    8.8678    1.4598 H           1 MOL       0.0238
     41 H10        11.0065    9.6003    3.0572 H           1 MOL       0.0238
     42 H11        11.5529    7.9259    2.9003 H           1 MOL       0.0238
     43 H12        14.9695    8.5991    1.5481 H           1 MOL       0.0238
     44 H13        13.5751    8.4454    0.4726 H           1 MOL       0.0238
     45 H14        13.7611    7.3768    1.8663 H           1 MOL       0.0238
     46 H15        13.2419   12.8916    2.4198 H           1 MOL       0.2015
     47 H16        14.2839   11.8634    3.2131 H           1 MOL       0.2015
     48 H17        12.6613   11.8513    3.5770 H           1 MOL       0.2015
     49 H18        18.9469   12.9683   -0.3953 H           1 MOL       0.0611
     50 H19        19.2154   11.6542   -1.5495 H           1 MOL       0.0611
     51 H20        21.2383   12.2647   -0.1741 H           1 MOL       0.0648
     52 H21        20.6728    9.6826   -0.9266 H           1 MOL       0.0648
     53 H22        22.7466   10.7284   -0.4718 H           1 MOL       0.2100
     54 H23        19.2876    9.1429    0.9725 H           1 MOL       0.0676
     55 H24        21.2917   10.4382    2.8598 H           1 MOL       0.0996
     56 H25        14.7859   11.4782    6.1925 H           1 MOL       0.1820
     57 H26        15.7380   10.1012    6.3076 H           1 MOL       0.1820
@<TRIPOS>BOND
     1     1     3   1
     2     9     1  am
     3     1    10   2
     4     2     8  ar
     5    13     2  ar
     6     3     7   1
     7     3    17   1
     8     4     5  ar
     9     4    13  ar
    10    29     4   1
    11     5     6  ar
    12    30     5   1
    13     6     8  ar
    14     6    31   1
    15     7    14   1
    16     7    15   1
    17     7    16   1
    18    18     9  am
    19    29    11   1
    20    11    30   2
    21    26    12   1
    22    18    19   2
    23    18    20   2
    24    21    18   1
    25    22    21   1
    26    23    22   1
    27    23    24   1
    28    28    23   1
    29    24    25   1
    30    26    24   1
    31    27    26   1
    32    27    28   1
    33    27    29   1
    34     2    32   1
    35     3    33   1
    36     9    34   1
    37    11    35   1
    38    12    36   1
    39    14    37   1
    40    14    38   1
    41    14    39   1
    42    15    40   1
    43    15    41   1
    44    15    42   1
    45    16    43   1
    46    16    44   1
    47    16    45   1
    48    17    46   1
    49    17    47   1
    50    17    48   1
    51    22    49   1
    52    22    50   1
    53    23    51   1
    54    24    52   1
    55    25    53   1
    56    26    54   1
    57    27    55   1
    58    31    56   1
    59    31    57   1
@<TRIPOS>SUBSTRUCTURE
     1  MOL      1

