@<TRIPOS>MOLECULE
3coy_ligand_044
    57    59
SMALL
GAST_HUCK
****
This file was generated by PARSER (from files_GN.cpp)

@<TRIPOS>ATOM
      1 C1         17.0065    8.7239    5.7453 C.2         1 MOL       0.2465
      2 C2         13.9015    8.0841    1.1658 C.ar        1 MOL       0.0533
      3 C3         16.1608    9.0468    6.8915 C.3         1 MOL       0.0714
      4 C4         14.5442   10.2544    1.8057 C.ar        1 MOL       0.1613
      5 C5         13.2722   10.4910    2.3223 C.ar        1 MOL       0.1045
      6 C6         12.3066    9.4765    2.2582 C.ar        1 MOL       0.1298
      7 C7         14.6639    9.5183    6.6441 C.3         1 MOL       0.0226
      8 N1         12.6487    8.2993    1.6564 N.ar        1 MOL      -0.2698
      9 N2         18.3193    8.6490    5.9260 N.am        1 MOL      -0.1294
     10 O1         16.4873    8.3340    4.7070 O.2         1 MOL      -0.3891
     11 C8         14.4501   12.2655    2.5680 C.2         1 MOL       0.1123
     12 O2         18.1406   13.5343    1.7377 O.3         1 MOL      -0.3836
     13 N3         14.8450    9.0565    1.2425 N.ar        1 MOL      -0.2714
     14 C9         14.0924   10.1830    7.9449 C.3         1 MOL      -0.0527
     15 C10        14.6268   10.6016    5.5153 C.3         1 MOL      -0.0527
     16 C11        13.7073    8.3409    6.2482 C.3         1 MOL      -0.0527
     17 N4         16.2771    7.8866    7.7971 N.4         1 MOL       0.2383
     18 S1         19.4462    7.9751    4.8620 S.o2        1 MOL       0.1859
     19 O1A        18.7829    6.5408    4.2512 O.2         1 MOL      -0.1218
     20 O2A        20.8933    7.7133    5.7012 O.2         1 MOL      -0.1218
     21 O5         19.7398    9.0166    3.5516 O.3         1 MOL      -0.2161
     22 C25        18.9995    9.0284    2.3216 C.3         1 MOL       0.1073
     23 C24        18.6164   10.4708    1.8852 C.3         1 MOL       0.1161
     24 C23        18.4681   11.4862    3.0348 C.3         1 MOL       0.1146
     25 O3         19.7143   12.0929    3.3864 O.3         1 MOL      -0.3864
     26 C22        17.4732   12.4958    2.4574 C.3         1 MOL       0.1385
     27 C21        16.6079   11.6470    1.4865 C.3         1 MOL       0.2010
     28 O4         17.3502   10.4469    1.2006 O.3         1 MOL      -0.3367
     29 N9         15.2726   11.3753    1.9608 N.pl3       1 MOL      -0.1919
     30 N7         13.2299   11.7511    2.7771 N.2         1 MOL      -0.2958
     31 N6         11.0887    9.6471    2.7969 N.pl3       1 MOL      -0.3152
     32 H1         14.1303    7.1859    0.7314 H           1 MOL       0.0996
     33 H2         16.6536    9.8776    7.4134 H           1 MOL       0.1104
     34 H3         18.6555    8.8942    6.8056 H           1 MOL       0.2167
     35 H4         14.7013   13.2194    2.8324 H           1 MOL       0.1349
     36 H5         17.4131   14.0296    1.3041 H           1 MOL       0.2101
     37 H6         13.0968   10.6023    7.7650 H           1 MOL       0.0238
     38 H7         14.7406   10.9983    8.2850 H           1 MOL       0.0238
     39 H8         14.0031    9.4562    8.7557 H           1 MOL       0.0238
     40 H9         15.0152   10.1952    4.5802 H           1 MOL       0.0238
     41 H10        15.2319   11.4703    5.7848 H           1 MOL       0.0238
     42 H11        13.6031   10.9477    5.3329 H           1 MOL       0.0238
     43 H12        13.7880    7.5151    6.9624 H           1 MOL       0.0238
     44 H13        13.9405    7.9570    5.2480 H           1 MOL       0.0238
     45 H14        12.6626    8.6753    6.2330 H           1 MOL       0.0238
     46 H15        17.2253    7.8784    8.1907 H           1 MOL       0.2015
     47 H16        16.1289    7.0144    7.2718 H           1 MOL       0.2015
     48 H17        15.6022    7.9481    8.5645 H           1 MOL       0.2015
     49 H18        18.0978    8.4127    2.3963 H           1 MOL       0.0611
     50 H19        19.6317    8.5862    1.5476 H           1 MOL       0.0611
     51 H20        19.3769   10.8384    1.1814 H           1 MOL       0.0648
     52 H21        18.0325   11.0054    3.9182 H           1 MOL       0.0648
     53 H22        20.2795   11.3539    3.6981 H           1 MOL       0.2100
     54 H23        16.8970   12.9529    3.2673 H           1 MOL       0.0676
     55 H24        16.5000   12.1737    0.5354 H           1 MOL       0.0996
     56 H25        10.4180    8.9444    2.7583 H           1 MOL       0.1820
     57 H26        10.9095   10.4513    3.3085 H           1 MOL       0.1820
@<TRIPOS>BOND
     1     1     3   1
     2     9     1  am
     3     1    10   2
     4     2     8  ar
     5    13     2  ar
     6     3     7   1
     7     3    17   1
     8     4     5  ar
     9     4    13  ar
    10    29     4   1
    11     5     6  ar
    12    30     5   1
    13     6     8  ar
    14     6    31   1
    15     7    14   1
    16     7    15   1
    17     7    16   1
    18    18     9  am
    19    29    11   1
    20    11    30   2
    21    26    12   1
    22    18    19   2
    23    18    20   2
    24    21    18   1
    25    22    21   1
    26    23    22   1
    27    23    24   1
    28    28    23   1
    29    24    25   1
    30    26    24   1
    31    27    26   1
    32    27    28   1
    33    27    29   1
    34     2    32   1
    35     3    33   1
    36     9    34   1
    37    11    35   1
    38    12    36   1
    39    14    37   1
    40    14    38   1
    41    14    39   1
    42    15    40   1
    43    15    41   1
    44    15    42   1
    45    16    43   1
    46    16    44   1
    47    16    45   1
    48    17    46   1
    49    17    47   1
    50    17    48   1
    51    22    49   1
    52    22    50   1
    53    23    51   1
    54    24    52   1
    55    25    53   1
    56    26    54   1
    57    27    55   1
    58    31    56   1
    59    31    57   1
@<TRIPOS>SUBSTRUCTURE
     1  MOL      1

