@<TRIPOS>MOLECULE
3coy_ligand_076
    57    59
SMALL
GAST_HUCK
****
This file was generated by PARSER (from files_GN.cpp)

@<TRIPOS>ATOM
      1 C1         21.2992    8.7643    1.5421 C.2         1 MOL       0.2465
      2 C2         16.1900    9.8148    6.7650 C.ar        1 MOL       0.0533
      3 C3         21.7672    7.7160    2.4419 C.3         1 MOL       0.0714
      4 C4         14.2862    9.4661    5.4219 C.ar        1 MOL       0.1613
      5 C5         13.5434    9.1168    6.5444 C.ar        1 MOL       0.1045
      6 C6         14.1579    9.1405    7.8063 C.ar        1 MOL       0.1298
      7 C7         21.0671    7.5978    3.8669 C.3         1 MOL       0.0226
      8 N1         15.4709    9.4902    7.8769 N.ar        1 MOL      -0.2698
      9 N2         20.0594    8.7494    1.0943 N.am        1 MOL      -0.1294
     10 O1         22.0770    9.6465    1.1780 O.2         1 MOL      -0.3891
     11 C8         12.2750    8.9550    4.8176 C.2         1 MOL       0.1123
     12 O2         12.8004   11.8560    2.5115 O.3         1 MOL      -0.3836
     13 N3         15.6004    9.8081    5.5391 N.ar        1 MOL      -0.2714
     14 C9         20.6594    8.9926    4.4510 C.3         1 MOL      -0.0527
     15 C10        19.7830    6.6925    3.8538 C.3         1 MOL      -0.0527
     16 C11        22.0701    6.9491    4.8815 C.3         1 MOL      -0.0527
     17 N4         21.7611    6.4493    1.6836 N.4         1 MOL       0.2383
     18 S1         19.3725    9.8869    0.0581 S.o2        1 MOL       0.1859
     19 O1A        19.7002    9.4296   -1.5345 O.2         1 MOL      -0.1218
     20 O2A        20.0714   11.4083    0.2882 O.2         1 MOL      -0.1218
     21 O5         17.7013    9.9706    0.3195 O.3         1 MOL      -0.2161
     22 C25        17.1014    9.7282    1.5991 C.3         1 MOL       0.1073
     23 C24        15.5567    9.6748    1.4753 C.3         1 MOL       0.1161
     24 C23        14.8604   11.0620    1.3750 C.3         1 MOL       0.1146
     25 O3         14.0420   11.1614    0.2059 O.3         1 MOL      -0.3864
     26 C22        14.0231   11.1301    2.6647 C.3         1 MOL       0.1385
     27 C21        13.7954    9.6403    2.9818 C.3         1 MOL       0.2010
     28 O4         15.0266    9.0023    2.6303 O.3         1 MOL      -0.3367
     29 N9         13.4756    9.3727    4.3541 N.pl3       1 MOL      -0.1919
     30 N7         12.2998    8.8033    6.1526 N.2         1 MOL      -0.2958
     31 N6         13.4748    8.8315    8.9214 N.pl3       1 MOL      -0.3152
     32 H1         17.1749   10.0663    6.8525 H           1 MOL       0.0996
     33 H2         22.8252    7.9195    2.6256 H           1 MOL       0.1104
     34 H3         19.5132    7.9842    1.3189 H           1 MOL       0.2167
     35 H4         11.4488    8.7801    4.2434 H           1 MOL       0.1349
     36 H5         12.3628   11.8179    3.3904 H           1 MOL       0.2101
     37 H6         20.2997    8.8978    5.4780 H           1 MOL       0.0238
     38 H7         19.8593    9.4463    3.8620 H           1 MOL       0.0238
     39 H8         21.5147    9.6706    4.4509 H           1 MOL       0.0238
     40 H9         20.0169    5.6747    3.5275 H           1 MOL       0.0238
     41 H10        19.0169    7.0947    3.1903 H           1 MOL       0.0238
     42 H11        19.3469    6.6214    4.8548 H           1 MOL       0.0238
     43 H12        22.9646    7.5660    4.9862 H           1 MOL       0.0238
     44 H13        22.3761    5.9557    4.5491 H           1 MOL       0.0238
     45 H14        21.6186    6.8498    5.8692 H           1 MOL       0.0238
     46 H15        22.3134    6.5454    0.8300 H           1 MOL       0.2015
     47 H16        20.8037    6.1951    1.4300 H           1 MOL       0.2015
     48 H17        22.1633    5.7096    2.2571 H           1 MOL       0.2015
     49 H18        17.3997   10.5008    2.3130 H           1 MOL       0.0611
     50 H19        17.4481    8.7654    1.9796 H           1 MOL       0.0611
     51 H20        15.3002    9.0657    0.6038 H           1 MOL       0.0648
     52 H21        15.5758   11.8864    1.3465 H           1 MOL       0.0648
     53 H22        13.3924   10.4291    0.2684 H           1 MOL       0.2100
     54 H23        14.6107   11.6047    3.4561 H           1 MOL       0.0676
     55 H24        13.0102    9.2471    2.3246 H           1 MOL       0.0996
     56 H25        13.9094    8.8679    9.7873 H           1 MOL       0.1820
     57 H26        12.5388    8.5868    8.8626 H           1 MOL       0.1820
@<TRIPOS>BOND
     1     1     3   1
     2     9     1  am
     3     1    10   2
     4     2     8  ar
     5    13     2  ar
     6     3     7   1
     7     3    17   1
     8     4     5  ar
     9     4    13  ar
    10    29     4   1
    11     5     6  ar
    12    30     5   1
    13     6     8  ar
    14     6    31   1
    15     7    14   1
    16     7    15   1
    17     7    16   1
    18    18     9  am
    19    29    11   1
    20    11    30   2
    21    26    12   1
    22    18    19   2
    23    18    20   2
    24    21    18   1
    25    22    21   1
    26    23    22   1
    27    23    24   1
    28    28    23   1
    29    24    25   1
    30    26    24   1
    31    27    26   1
    32    27    28   1
    33    27    29   1
    34     2    32   1
    35     3    33   1
    36     9    34   1
    37    11    35   1
    38    12    36   1
    39    14    37   1
    40    14    38   1
    41    14    39   1
    42    15    40   1
    43    15    41   1
    44    15    42   1
    45    16    43   1
    46    16    44   1
    47    16    45   1
    48    17    46   1
    49    17    47   1
    50    17    48   1
    51    22    49   1
    52    22    50   1
    53    23    51   1
    54    24    52   1
    55    25    53   1
    56    26    54   1
    57    27    55   1
    58    31    56   1
    59    31    57   1
@<TRIPOS>SUBSTRUCTURE
     1  MOL      1

