@<TRIPOS>MOLECULE
3coy_ligand_039
    57    59
SMALL
GAST_HUCK
****
This file was generated by PARSER (from files_GN.cpp)

@<TRIPOS>ATOM
      1 C1         15.8994   10.8416   -0.3498 C.2         1 MOL       0.2465
      2 C2         23.9823   10.3959    4.3533 C.ar        1 MOL       0.0533
      3 C3         15.4604   10.1062   -1.5337 C.3         1 MOL       0.0714
      4 C4         23.2942   11.9185    2.6891 C.ar        1 MOL       0.1613
      5 C5         23.9490   12.9556    3.3541 C.ar        1 MOL       0.1045
      6 C6         24.6292   12.6773    4.5542 C.ar        1 MOL       0.1298
      7 C7         13.9007   10.1218   -1.8334 C.3         1 MOL       0.0226
      8 N1         24.6215   11.3982    5.0182 N.ar        1 MOL      -0.2698
      9 N2         16.6434   10.2575    0.5885 N.am        1 MOL      -0.1294
     10 O1         15.7088   12.0500   -0.2953 O.2         1 MOL      -0.3891
     11 C8         23.0629   13.7444    1.5658 C.2         1 MOL       0.1123
     12 O2         21.9366    9.3092    1.0118 O.3         1 MOL      -0.3836
     13 N3         23.3244   10.6549    3.1903 N.ar        1 MOL      -0.2714
     14 C9         13.1730    9.0387   -0.9675 C.3         1 MOL      -0.0527
     15 C10        13.2410   11.5074   -1.5294 C.3         1 MOL      -0.0527
     16 C11        13.6317    9.7742   -3.3381 C.3         1 MOL      -0.0527
     17 N4         16.2671   10.6060   -2.6644 N.4         1 MOL       0.2383
     18 S1         17.3349   11.0368    1.9147 S.o2        1 MOL       0.1859
     19 O1A        18.0712    9.9468    2.9768 O.2         1 MOL      -0.1218
     20 O2A        16.1450   11.9040    2.7568 O.2         1 MOL      -0.1218
     21 O5         18.4901   12.1966    1.4325 O.3         1 MOL      -0.2161
     22 C25        18.7393   12.6556    0.0973 C.3         1 MOL       0.1073
     23 C24        19.9581   11.9502   -0.5742 C.3         1 MOL       0.1161
     24 C23        20.1375   10.4544   -0.2175 C.3         1 MOL       0.1146
     25 O3         20.5920    9.7036   -1.3471 O.3         1 MOL      -0.3864
     26 C22        21.1846   10.5167    0.9067 C.3         1 MOL       0.1385
     27 C21        22.0531   11.7318    0.5086 C.3         1 MOL       0.2010
     28 O4         21.1856   12.6205   -0.2203 O.3         1 MOL      -0.3367
     29 N9         22.7316   12.4305    1.5767 N.pl3       1 MOL      -0.1919
     30 N7         23.7974   14.0805    2.6437 N.2         1 MOL      -0.2958
     31 N6         25.2861   13.6335    5.2358 N.pl3       1 MOL      -0.3152
     32 H1         23.9934    9.4477    4.7249 H           1 MOL       0.0996
     33 H2         15.7542    9.0554   -1.4249 H           1 MOL       0.1104
     34 H3         16.8311    9.3079    0.4867 H           1 MOL       0.2167
     35 H4         22.8200   14.4110    0.8310 H           1 MOL       0.1349
     36 H5         21.2721    8.6100    1.1967 H           1 MOL       0.2101
     37 H6         12.0951    9.0568   -1.1563 H           1 MOL       0.0238
     38 H7         13.3311    9.2161    0.0982 H           1 MOL       0.0238
     39 H8         13.5416    8.0378   -1.2049 H           1 MOL       0.0238
     40 H9         13.8109   12.3090   -2.0008 H           1 MOL       0.0238
     41 H10        13.2000   11.7001   -0.4553 H           1 MOL       0.0238
     42 H11        12.2141   11.5487   -1.9021 H           1 MOL       0.0238
     43 H12        14.1172    8.8353   -3.6126 H           1 MOL       0.0238
     44 H13        14.0084   10.5601   -3.9963 H           1 MOL       0.0238
     45 H14        12.5616    9.6685   -3.5367 H           1 MOL       0.0238
     46 H15        17.2604   10.5575   -2.4263 H           1 MOL       0.2015
     47 H16        16.0150   11.5742   -2.8700 H           1 MOL       0.2015
     48 H17        16.1027   10.0265   -3.4885 H           1 MOL       0.2015
     49 H18        18.9075   13.7386    0.1433 H           1 MOL       0.0611
     50 H19        17.8610   12.4869   -0.5417 H           1 MOL       0.0611
     51 H20        19.8360   12.0528   -1.6556 H           1 MOL       0.0648
     52 H21        19.2187    9.9847    0.1383 H           1 MOL       0.0648
     53 H22        20.0956   10.0722   -2.1066 H           1 MOL       0.2100
     54 H23        20.6921   10.7173    1.8652 H           1 MOL       0.0676
     55 H24        22.8206   11.3992   -0.1951 H           1 MOL       0.0996
     56 H25        25.7572   13.4079    6.0536 H           1 MOL       0.1820
     57 H26        25.2977   14.5466    4.9081 H           1 MOL       0.1820
@<TRIPOS>BOND
     1     1     3   1
     2     9     1  am
     3     1    10   2
     4     2     8  ar
     5    13     2  ar
     6     3     7   1
     7     3    17   1
     8     4     5  ar
     9     4    13  ar
    10    29     4   1
    11     5     6  ar
    12    30     5   1
    13     6     8  ar
    14     6    31   1
    15     7    14   1
    16     7    15   1
    17     7    16   1
    18    18     9  am
    19    29    11   1
    20    11    30   2
    21    26    12   1
    22    18    19   2
    23    18    20   2
    24    21    18   1
    25    22    21   1
    26    23    22   1
    27    23    24   1
    28    28    23   1
    29    24    25   1
    30    26    24   1
    31    27    26   1
    32    27    28   1
    33    27    29   1
    34     2    32   1
    35     3    33   1
    36     9    34   1
    37    11    35   1
    38    12    36   1
    39    14    37   1
    40    14    38   1
    41    14    39   1
    42    15    40   1
    43    15    41   1
    44    15    42   1
    45    16    43   1
    46    16    44   1
    47    16    45   1
    48    17    46   1
    49    17    47   1
    50    17    48   1
    51    22    49   1
    52    22    50   1
    53    23    51   1
    54    24    52   1
    55    25    53   1
    56    26    54   1
    57    27    55   1
    58    31    56   1
    59    31    57   1
@<TRIPOS>SUBSTRUCTURE
     1  MOL      1

