@<TRIPOS>MOLECULE
3coy_ligand_054
    57    59
SMALL
GAST_HUCK
****
This file was generated by PARSER (from files_GN.cpp)

@<TRIPOS>ATOM
      1 C1         15.2164   10.4069    8.1657 C.2         1 MOL       0.2465
      2 C2         15.0451   10.0247   -4.7983 C.ar        1 MOL       0.0533
      3 C3         15.0813   11.4547    9.1749 C.3         1 MOL       0.0714
      4 C4         14.0659    9.6486   -2.6899 C.ar        1 MOL       0.1613
      5 C5         12.7933    9.7594   -3.2436 C.ar        1 MOL       0.1045
      6 C6         12.6714   10.0095   -4.6206 C.ar        1 MOL       0.1298
      7 C7         13.7684   11.4038   10.0768 C.3         1 MOL       0.0226
      8 N1         13.8103   10.1338   -5.3601 N.ar        1 MOL      -0.2698
      9 N2         14.9161   10.6555    6.8948 N.am        1 MOL      -0.1294
     10 O1         15.5511    9.2844    8.5195 O.2         1 MOL      -0.3891
     11 C8         12.5856    9.3692   -1.1424 C.2         1 MOL       0.1123
     12 O2         17.1717   10.2557   -0.1213 O.3         1 MOL      -0.3836
     13 N3         15.1766    9.7798   -3.4654 N.ar        1 MOL      -0.2714
     14 C9         14.0707   11.6609   11.5885 C.3         1 MOL      -0.0527
     15 C10        12.7700   12.5314    9.6245 C.3         1 MOL      -0.0527
     16 C11        12.9976   10.0429    9.9793 C.3         1 MOL      -0.0527
     17 N4         16.3466   11.4977    9.9391 N.4         1 MOL       0.2383
     18 S1         14.9298    9.5051    5.6566 S.o2        1 MOL       0.1859
     19 O1A        13.9385    8.1916    6.0405 O.2         1 MOL      -0.1218
     20 O2A        16.4907    8.8638    5.5440 O.2         1 MOL      -0.1218
     21 O5         14.5083   10.2007    4.1695 O.3         1 MOL      -0.2161
     22 C25        13.9694    9.4700    3.0584 C.3         1 MOL       0.1073
     23 C24        14.9725    9.4832    1.8815 C.3         1 MOL       0.1161
     24 C23        15.2294   10.8687    1.2576 C.3         1 MOL       0.1146
     25 O3         16.1472   11.6605    2.0051 O.3         1 MOL      -0.3864
     26 C22        15.7622   10.4919   -0.1301 C.3         1 MOL       0.1385
     27 C21        14.9859    9.1873   -0.4426 C.3         1 MOL       0.2010
     28 O4         14.4926    8.6623    0.8070 O.3         1 MOL      -0.3367
     29 N9         13.9186    9.3949   -1.3802 N.pl3       1 MOL      -0.1919
     30 N7         11.8887    9.5846   -2.2714 N.2         1 MOL      -0.2958
     31 N6         11.4714   10.1141   -5.2092 N.pl3       1 MOL      -0.3152
     32 H1         15.8791   10.1217   -5.3800 H           1 MOL       0.0996
     33 H2         15.0923   12.4144    8.6474 H           1 MOL       0.1104
     34 H3         14.6624   11.5605    6.6530 H           1 MOL       0.2167
     35 H4         12.1519    9.2101   -0.2327 H           1 MOL       0.1349
     36 H5         17.2946    9.3643    0.2702 H           1 MOL       0.2101
     37 H6         13.1542   11.7075   12.1756 H           1 MOL       0.0238
     38 H7         14.6042   12.6009   11.7266 H           1 MOL       0.0238
     39 H8         14.6843   10.8623   12.0013 H           1 MOL       0.0238
     40 H9         12.5301   12.4435    8.5607 H           1 MOL       0.0238
     41 H10        13.2010   13.5237    9.7938 H           1 MOL       0.0238
     42 H11        11.8279   12.4864   10.1846 H           1 MOL       0.0238
     43 H12        13.6436    9.2182   10.2725 H           1 MOL       0.0238
     44 H13        12.6504    9.8607    8.9624 H           1 MOL       0.0238
     45 H14        12.1224   10.0319   10.6325 H           1 MOL       0.0238
     46 H15        17.1321   11.3765    9.3028 H           1 MOL       0.2015
     47 H16        16.3638   10.7572   10.6432 H           1 MOL       0.2015
     48 H17        16.4262   12.4130   10.3970 H           1 MOL       0.2015
     49 H18        13.0253    9.9259    2.7601 H           1 MOL       0.0611
     50 H19        13.7635    8.4317    3.3349 H           1 MOL       0.0611
     51 H20        15.9227    9.0607    2.2337 H           1 MOL       0.0648
     52 H21        14.2862   11.4167    1.1578 H           1 MOL       0.0648
     53 H22        16.1340   12.5280    1.5509 H           1 MOL       0.2100
     54 H23        15.5565   11.2942   -0.8406 H           1 MOL       0.0676
     55 H24        15.6569    8.4326   -0.8653 H           1 MOL       0.0996
     56 H25        11.4114   10.2709   -6.1657 H           1 MOL       0.1820
     57 H26        10.6596   10.0238   -4.6822 H           1 MOL       0.1820
@<TRIPOS>BOND
     1     1     3   1
     2     9     1  am
     3     1    10   2
     4     2     8  ar
     5    13     2  ar
     6     3     7   1
     7     3    17   1
     8     4     5  ar
     9     4    13  ar
    10    29     4   1
    11     5     6  ar
    12    30     5   1
    13     6     8  ar
    14     6    31   1
    15     7    14   1
    16     7    15   1
    17     7    16   1
    18    18     9  am
    19    29    11   1
    20    11    30   2
    21    26    12   1
    22    18    19   2
    23    18    20   2
    24    21    18   1
    25    22    21   1
    26    23    22   1
    27    23    24   1
    28    28    23   1
    29    24    25   1
    30    26    24   1
    31    27    26   1
    32    27    28   1
    33    27    29   1
    34     2    32   1
    35     3    33   1
    36     9    34   1
    37    11    35   1
    38    12    36   1
    39    14    37   1
    40    14    38   1
    41    14    39   1
    42    15    40   1
    43    15    41   1
    44    15    42   1
    45    16    43   1
    46    16    44   1
    47    16    45   1
    48    17    46   1
    49    17    47   1
    50    17    48   1
    51    22    49   1
    52    22    50   1
    53    23    51   1
    54    24    52   1
    55    25    53   1
    56    26    54   1
    57    27    55   1
    58    31    56   1
    59    31    57   1
@<TRIPOS>SUBSTRUCTURE
     1  MOL      1

