@<TRIPOS>MOLECULE
3coy_ligand_066
    57    59
SMALL
GAST_HUCK
****
This file was generated by PARSER (from files_GN.cpp)

@<TRIPOS>ATOM
      1 C1         16.6881   11.0498   -0.4635 C.2         1 MOL       0.2465
      2 C2         21.7388    6.5860    2.4077 C.ar        1 MOL       0.0533
      3 C3         15.3385   10.6393   -0.0515 C.3         1 MOL       0.0714
      4 C4         22.3547    7.9555    4.2170 C.ar        1 MOL       0.1613
      5 C5         22.7213    6.8360    4.9661 C.ar        1 MOL       0.1045
      6 C6         22.5784    5.5629    4.3912 C.ar        1 MOL       0.1298
      7 C7         14.3668   10.2100   -1.2293 C.3         1 MOL       0.0226
      8 N1         22.0872    5.4779    3.1215 N.ar        1 MOL      -0.2698
      9 N2         17.6921   10.1854   -0.5016 N.am        1 MOL      -0.1294
     10 O1         16.8768   12.2460   -0.6731 O.2         1 MOL      -0.3891
     11 C8         23.0269    8.5981    6.1675 C.2         1 MOL       0.1123
     12 O2         23.7298   12.2556    4.0888 O.3         1 MOL      -0.3836
     13 N3         21.8692    7.8258    2.9543 N.ar        1 MOL      -0.2714
     14 C9         14.9215    8.9793   -2.0185 C.3         1 MOL      -0.0527
     15 C10        12.9600    9.8279   -0.6544 C.3         1 MOL      -0.0527
     16 C11        14.1621   11.4003   -2.2245 C.3         1 MOL      -0.0527
     17 N4         15.4305    9.6327    1.0295 N.4         1 MOL       0.2383
     18 S1         19.3466   10.5275   -0.5789 S.o2        1 MOL       0.1859
     19 O1A        19.6305   12.1253   -1.0622 O.2         1 MOL      -0.1218
     20 O2A        20.1116    9.4148   -1.5882 O.2         1 MOL      -0.1218
     21 O5         19.9321   10.2690    0.9868 O.3         1 MOL      -0.2161
     22 C25        19.6509   11.1343    2.0888 C.3         1 MOL       0.1073
     23 C24        20.8637   11.3842    3.0296 C.3         1 MOL       0.1161
     24 C23        22.2678   11.2843    2.3876 C.3         1 MOL       0.1146
     25 O3         22.6240   12.4268    1.6141 O.3         1 MOL      -0.3864
     26 C22        23.1773   11.0342    3.5983 C.3         1 MOL       0.1385
     27 C21        22.2156   10.4024    4.6397 C.3         1 MOL       0.2010
     28 O4         20.8924   10.4248    4.0910 O.3         1 MOL      -0.3367
     29 N9         22.5406    9.0436    4.9838 N.pl3       1 MOL      -0.1919
     30 N7         23.1393    7.2562    6.1733 N.2         1 MOL      -0.2958
     31 N6         22.8980    4.4419    5.0586 N.pl3       1 MOL      -0.3152
     32 H1         21.3691    6.4880    1.4625 H           1 MOL       0.0996
     33 H2         14.8809   11.4994    0.4499 H           1 MOL       0.1104
     34 H3         17.4713    9.2524   -0.3353 H           1 MOL       0.2167
     35 H4         23.2657    9.1925    6.9657 H           1 MOL       0.1349
     36 H5         24.2740   12.0047    4.8636 H           1 MOL       0.2101
     37 H6         14.2579    8.7263   -2.8483 H           1 MOL       0.0238
     38 H7         15.0060    8.1001   -1.3754 H           1 MOL       0.0238
     39 H8         15.9067    9.1950   -2.4330 H           1 MOL       0.0238
     40 H9         12.5418   10.6557   -0.0791 H           1 MOL       0.0238
     41 H10        13.0243    8.9565   -0.0027 H           1 MOL       0.0238
     42 H11        12.2634    9.5851   -1.4567 H           1 MOL       0.0238
     43 H12        15.0889   11.6381   -2.7446 H           1 MOL       0.0238
     44 H13        13.8285   12.2921   -1.6938 H           1 MOL       0.0238
     45 H14        13.4141   11.1507   -2.9741 H           1 MOL       0.0238
     46 H15        16.0422    9.9851    1.7714 H           1 MOL       0.2015
     47 H16        15.8168    8.7620    0.6619 H           1 MOL       0.2015
     48 H17        14.5068    9.4561    1.4272 H           1 MOL       0.2015
     49 H18        18.8452   10.6808    2.6567 H           1 MOL       0.0611
     50 H19        19.3009   12.0921    1.7185 H           1 MOL       0.0611
     51 H20        20.7463   12.3728    3.4864 H           1 MOL       0.0648
     52 H21        22.3180   10.4085    1.7330 H           1 MOL       0.0648
     53 H22        22.5808   13.1883    2.2325 H           1 MOL       0.2100
     54 H23        24.0024   10.3661    3.3262 H           1 MOL       0.0676
     55 H24        22.1981   11.0161    5.5502 H           1 MOL       0.0996
     56 H25        22.7799    3.5778    4.6365 H           1 MOL       0.1820
     57 H26        23.2330    4.4949    5.9664 H           1 MOL       0.1820
@<TRIPOS>BOND
     1     1     3   1
     2     9     1  am
     3     1    10   2
     4     2     8  ar
     5    13     2  ar
     6     3     7   1
     7     3    17   1
     8     4     5  ar
     9     4    13  ar
    10    29     4   1
    11     5     6  ar
    12    30     5   1
    13     6     8  ar
    14     6    31   1
    15     7    14   1
    16     7    15   1
    17     7    16   1
    18    18     9  am
    19    29    11   1
    20    11    30   2
    21    26    12   1
    22    18    19   2
    23    18    20   2
    24    21    18   1
    25    22    21   1
    26    23    22   1
    27    23    24   1
    28    28    23   1
    29    24    25   1
    30    26    24   1
    31    27    26   1
    32    27    28   1
    33    27    29   1
    34     2    32   1
    35     3    33   1
    36     9    34   1
    37    11    35   1
    38    12    36   1
    39    14    37   1
    40    14    38   1
    41    14    39   1
    42    15    40   1
    43    15    41   1
    44    15    42   1
    45    16    43   1
    46    16    44   1
    47    16    45   1
    48    17    46   1
    49    17    47   1
    50    17    48   1
    51    22    49   1
    52    22    50   1
    53    23    51   1
    54    24    52   1
    55    25    53   1
    56    26    54   1
    57    27    55   1
    58    31    56   1
    59    31    57   1
@<TRIPOS>SUBSTRUCTURE
     1  MOL      1

