@<TRIPOS>MOLECULE
3coy_ligand_001
    57    59
SMALL
GAST_HUCK
****
This file was generated by PARSER (from files_GN.cpp)

@<TRIPOS>ATOM
      1 C1         18.3314   11.0173    1.4934 C.2         1 MOL       0.2465
      2 C2         13.2091    8.5248   -4.6259 C.ar        1 MOL       0.0533
      3 C3         19.1529   10.6645    0.3344 C.3         1 MOL       0.0714
      4 C4         13.9407    9.8696   -2.8396 C.ar        1 MOL       0.1613
      5 C5         14.8838   10.4841   -3.6598 C.ar        1 MOL       0.1045
      6 C6         14.9695   10.0893   -5.0071 C.ar        1 MOL       0.1298
      7 C7         20.5785   10.0590    0.6862 C.3         1 MOL       0.0226
      8 N1         14.1203    9.1210   -5.4445 N.ar        1 MOL      -0.2698
      9 N2         17.4209   10.1684    1.9472 N.am        1 MOL      -0.1294
     10 O1         18.5313   12.0927    2.0532 O.2         1 MOL      -0.3891
     11 C8         15.0477   11.3176   -1.6808 C.2         1 MOL       0.1123
     12 O2         14.1691    7.6647   -0.2671 O.3         1 MOL      -0.3836
     13 N3         13.1231    8.8966   -3.3195 N.ar        1 MOL      -0.2714
     14 C9         20.5612    9.1479    1.9582 C.3         1 MOL      -0.0527
     15 C10        21.0986    9.1948   -0.5055 C.3         1 MOL      -0.0527
     16 C11        21.5957   11.2253    0.9248 C.3         1 MOL      -0.0527
     17 N4         18.3483    9.8159   -0.5719 N.4         1 MOL       0.2383
     18 S1         16.3267   10.4684    3.1940 S.o2        1 MOL       0.1859
     19 O1A        17.0714   11.4213    4.3723 O.2         1 MOL      -0.1218
     20 O2A        15.7524    9.0254    3.8671 O.2         1 MOL      -0.1218
     21 O5         15.0699   11.3937    2.5350 O.3         1 MOL      -0.2161
     22 C25        13.6832   11.2890    2.8683 C.3         1 MOL       0.1073
     23 C24        12.9301   10.4512    1.8039 C.3         1 MOL       0.1161
     24 C23        13.4110    8.9769    1.7133 C.3         1 MOL       0.1146
     25 O3         12.3021    8.0773    1.7329 O.3         1 MOL      -0.3864
     26 C22        14.1388    8.9436    0.3637 C.3         1 MOL       0.1385
     27 C21        13.3408    9.9846   -0.4385 C.3         1 MOL       0.2010
     28 O4         13.1100   11.0474    0.5011 O.3         1 MOL      -0.3367
     29 N9         14.0566   10.4028   -1.6108 N.pl3       1 MOL      -0.1919
     30 N7         15.5565   11.3828   -2.9273 N.2         1 MOL      -0.2958
     31 N6         15.8668   10.6150   -5.8570 N.pl3       1 MOL      -0.3152
     32 H1         12.5931    7.7958   -4.9916 H           1 MOL       0.0996
     33 H2         19.3190   11.5761   -0.2505 H           1 MOL       0.1104
     34 H3         17.3153    9.3300    1.4699 H           1 MOL       0.2167
     35 H4         15.3899   11.8802   -0.8989 H           1 MOL       0.1349
     36 H5         15.0772    7.3314   -0.1014 H           1 MOL       0.2101
     37 H6         21.5277    8.6583    2.1009 H           1 MOL       0.0238
     38 H7         19.7943    8.3742    1.8649 H           1 MOL       0.0238
     39 H8         20.3517    9.7277    2.8596 H           1 MOL       0.0238
     40 H9         21.0351    9.7497   -1.4432 H           1 MOL       0.0238
     41 H10        20.5073    8.2845   -0.6112 H           1 MOL       0.0238
     42 H11        22.1394    8.8964   -0.3573 H           1 MOL       0.0238
     43 H12        21.2717   11.8620    1.7496 H           1 MOL       0.0238
     44 H13        21.6869   11.8469    0.0319 H           1 MOL       0.0238
     45 H14        22.5829   10.8365    1.1711 H           1 MOL       0.0238
     46 H15        17.4192   10.2209   -0.6927 H           1 MOL       0.2015
     47 H16        18.2578    8.8718   -0.1869 H           1 MOL       0.2015
     48 H17        18.8029    9.7623   -1.4859 H           1 MOL       0.2015
     49 H18        13.2690   12.2987    2.8997 H           1 MOL       0.0611
     50 H19        13.5433   10.8432    3.8587 H           1 MOL       0.0611
     51 H20        11.8622   10.4852    2.0474 H           1 MOL       0.0648
     52 H21        14.0869    8.6855    2.5191 H           1 MOL       0.0648
     53 H22        11.9837    8.0827    2.6625 H           1 MOL       0.2100
     54 H23        15.1666    9.2891    0.4932 H           1 MOL       0.0676
     55 H24        12.3674    9.5670   -0.7292 H           1 MOL       0.0996
     56 H25        15.8867   10.3253   -6.7849 H           1 MOL       0.1820
     57 H26        16.5289   11.2491   -5.5420 H           1 MOL       0.1820
@<TRIPOS>BOND
     1     1     3   1
     2     9     1  am
     3     1    10   2
     4     2     8  ar
     5    13     2  ar
     6     3     7   1
     7     3    17   1
     8     4     5  ar
     9     4    13  ar
    10    29     4   1
    11     5     6  ar
    12    30     5   1
    13     6     8  ar
    14     6    31   1
    15     7    14   1
    16     7    15   1
    17     7    16   1
    18    18     9  am
    19    29    11   1
    20    11    30   2
    21    26    12   1
    22    18    19   2
    23    18    20   2
    24    21    18   1
    25    22    21   1
    26    23    22   1
    27    23    24   1
    28    28    23   1
    29    24    25   1
    30    26    24   1
    31    27    26   1
    32    27    28   1
    33    27    29   1
    34     2    32   1
    35     3    33   1
    36     9    34   1
    37    11    35   1
    38    12    36   1
    39    14    37   1
    40    14    38   1
    41    14    39   1
    42    15    40   1
    43    15    41   1
    44    15    42   1
    45    16    43   1
    46    16    44   1
    47    16    45   1
    48    17    46   1
    49    17    47   1
    50    17    48   1
    51    22    49   1
    52    22    50   1
    53    23    51   1
    54    24    52   1
    55    25    53   1
    56    26    54   1
    57    27    55   1
    58    31    56   1
    59    31    57   1
@<TRIPOS>SUBSTRUCTURE
     1  MOL      1

