@<TRIPOS>MOLECULE
3coy_ligand_070
    57    59
SMALL
GAST_HUCK
****
This file was generated by PARSER (from files_GN.cpp)

@<TRIPOS>ATOM
      1 C1         22.1157    6.2427    2.1944 C.2         1 MOL       0.2465
      2 C2         15.6721   11.5383   -5.5056 C.ar        1 MOL       0.0533
      3 C3         21.3896    5.8227    3.4009 C.3         1 MOL       0.0714
      4 C4         16.2743   10.8830   -3.3244 C.ar        1 MOL       0.1613
      5 C5         15.1775   10.0256   -3.2625 C.ar        1 MOL       0.1045
      6 C6         14.3203    9.9391   -4.3792 C.ar        1 MOL       0.1298
      7 C7         20.8288    4.3260    3.4226 C.3         1 MOL       0.0226
      8 N1         14.6041   10.6932   -5.4690 N.ar        1 MOL      -0.2698
      9 N2         21.3932    6.6964    1.1784 N.am        1 MOL      -0.1294
     10 O1         23.3229    6.0732    2.0932 O.2         1 MOL      -0.3891
     11 C8         16.2507    9.8773   -1.4123 C.2         1 MOL       0.1123
     12 O2         18.7272   13.5358   -0.6962 O.3         1 MOL      -0.3836
     13 N3         16.5006   11.6421   -4.4261 N.ar        1 MOL      -0.2714
     14 C9         20.6715    3.7043    1.9896 C.3         1 MOL      -0.0527
     15 C10        21.7513    3.3640    4.2503 C.3         1 MOL      -0.0527
     16 C11        19.4038    4.3225    4.0781 C.3         1 MOL      -0.0527
     17 N4         22.2020    6.1657    4.5837 N.4         1 MOL       0.2383
     18 S1         21.8804    7.1780   -0.3583 S.o2        1 MOL       0.1859
     19 O1A        21.2141    6.1242   -1.4989 O.2         1 MOL      -0.1218
     20 O2A        23.5571    7.1615   -0.5718 O.2         1 MOL      -0.1218
     21 O5         21.2014    8.6862   -0.7279 O.3         1 MOL      -0.2161
     22 C25        20.4998    9.4603    0.2536 C.3         1 MOL       0.1073
     23 C24        19.9106   10.7374   -0.3791 C.3         1 MOL       0.1161
     24 C23        18.8965   11.4555    0.5375 C.3         1 MOL       0.1146
     25 O3         19.5104   12.2613    1.5457 O.3         1 MOL      -0.3864
     26 C22        18.0934   12.2682   -0.4902 C.3         1 MOL       0.1385
     27 C21        18.1763   11.4120   -1.7810 C.3         1 MOL       0.2010
     28 O4         19.1743   10.3984   -1.5641 O.3         1 MOL      -0.3367
     29 N9         16.9423   10.7679   -2.1584 N.pl3       1 MOL      -0.1919
     30 N7         15.1755    9.4151   -2.0728 N.2         1 MOL      -0.2958
     31 N6         13.2398    9.1390   -4.3714 N.pl3       1 MOL      -0.3152
     32 H1         15.8473   12.0996   -6.3360 H           1 MOL       0.0996
     33 H2         20.5349    6.5040    3.5017 H           1 MOL       0.1104
     34 H3         20.4353    6.7200    1.3260 H           1 MOL       0.2167
     35 H4         16.5070    9.5708   -0.4676 H           1 MOL       0.1349
     36 H5         18.0486   14.0628   -1.1598 H           1 MOL       0.2101
     37 H6         20.2109    2.7158    2.0263 H           1 MOL       0.0238
     38 H7         21.6563    3.5989    1.5272 H           1 MOL       0.0238
     39 H8         20.0543    4.3494    1.3518 H           1 MOL       0.0238
     40 H9         21.7763    3.6573    5.3055 H           1 MOL       0.0238
     41 H10        22.7761    3.3944    3.8635 H           1 MOL       0.0238
     42 H11        21.3971    2.3302    4.2082 H           1 MOL       0.0238
     43 H12        18.6995    4.8923    3.4609 H           1 MOL       0.0238
     44 H13        19.4394    4.7843    5.0693 H           1 MOL       0.0238
     45 H14        19.0099    3.3068    4.1868 H           1 MOL       0.0238
     46 H15        22.3912    7.1722    4.5919 H           1 MOL       0.2015
     47 H16        23.0890    5.6499    4.5504 H           1 MOL       0.2015
     48 H17        21.6855    5.9024    5.4293 H           1 MOL       0.2015
     49 H18        21.1876    9.7255    1.0602 H           1 MOL       0.0611
     50 H19        19.6818    8.8624    0.6621 H           1 MOL       0.0611
     51 H20        20.7280   11.4231   -0.6410 H           1 MOL       0.0648
     52 H21        18.2294   10.7313    1.0179 H           1 MOL       0.0648
     53 H22        19.9841   11.6220    2.1176 H           1 MOL       0.2100
     54 H23        17.0649   12.4271   -0.1421 H           1 MOL       0.0676
     55 H24        18.5285   12.0339   -2.6096 H           1 MOL       0.0996
     56 H25        12.6512    9.1064   -5.1438 H           1 MOL       0.1820
     57 H26        13.0317    8.6088   -3.5861 H           1 MOL       0.1820
@<TRIPOS>BOND
     1     1     3   1
     2     9     1  am
     3     1    10   2
     4     2     8  ar
     5    13     2  ar
     6     3     7   1
     7     3    17   1
     8     4     5  ar
     9     4    13  ar
    10    29     4   1
    11     5     6  ar
    12    30     5   1
    13     6     8  ar
    14     6    31   1
    15     7    14   1
    16     7    15   1
    17     7    16   1
    18    18     9  am
    19    29    11   1
    20    11    30   2
    21    26    12   1
    22    18    19   2
    23    18    20   2
    24    21    18   1
    25    22    21   1
    26    23    22   1
    27    23    24   1
    28    28    23   1
    29    24    25   1
    30    26    24   1
    31    27    26   1
    32    27    28   1
    33    27    29   1
    34     2    32   1
    35     3    33   1
    36     9    34   1
    37    11    35   1
    38    12    36   1
    39    14    37   1
    40    14    38   1
    41    14    39   1
    42    15    40   1
    43    15    41   1
    44    15    42   1
    45    16    43   1
    46    16    44   1
    47    16    45   1
    48    17    46   1
    49    17    47   1
    50    17    48   1
    51    22    49   1
    52    22    50   1
    53    23    51   1
    54    24    52   1
    55    25    53   1
    56    26    54   1
    57    27    55   1
    58    31    56   1
    59    31    57   1
@<TRIPOS>SUBSTRUCTURE
     1  MOL      1

