@<TRIPOS>MOLECULE
3coy_ligand_008
    57    59
SMALL
GAST_HUCK
****
This file was generated by PARSER (from files_GN.cpp)

@<TRIPOS>ATOM
      1 C1         21.5906    8.0719    2.6197 C.2         1 MOL       0.2465
      2 C2         13.5334    8.7796   -0.3550 C.ar        1 MOL       0.0533
      3 C3         20.9557    7.2911    3.6856 C.3         1 MOL       0.0714
      4 C4         14.8509   10.4295    0.6830 C.ar        1 MOL       0.1613
      5 C5         13.9603   10.4880    1.7580 C.ar        1 MOL       0.1045
      6 C6         12.8198    9.6686    1.7428 C.ar        1 MOL       0.1298
      7 C7         19.6291    7.9180    4.3234 C.3         1 MOL       0.0226
      8 N1         12.6518    8.8287    0.6819 N.ar        1 MOL      -0.2698
      9 N2         21.0899    8.0193    1.3937 N.am        1 MOL      -0.1294
     10 O1         22.5902    8.7247    2.8725 O.2         1 MOL      -0.3891
     11 C8         15.5284   11.9130    2.0895 C.2         1 MOL       0.1123
     12 O2         18.4160   13.1941    1.3278 O.3         1 MOL      -0.3836
     13 N3         14.6256    9.5872   -0.3564 N.ar        1 MOL      -0.2714
     14 C9         20.0251    8.8318    5.5332 C.3         1 MOL      -0.0527
     15 C10        18.7961    8.7960    3.3292 C.3         1 MOL      -0.0527
     16 C11        18.6692    6.8017    4.8587 C.3         1 MOL      -0.0527
     17 N4         20.8275    5.9064    3.1820 N.4         1 MOL       0.2383
     18 S1         21.7077    8.7576    0.0033 S.o2        1 MOL       0.1859
     19 O1A        22.8983    7.7971   -0.7178 O.2         1 MOL      -0.1218
     20 O2A        22.4362   10.2309    0.3956 O.2         1 MOL      -0.1218
     21 O5         20.4709    8.9875   -1.1356 O.3         1 MOL      -0.2161
     22 C25        19.0702    9.1283   -0.8446 C.3         1 MOL       0.1073
     23 C24        18.5856   10.5507   -1.2277 C.3         1 MOL       0.1161
     24 C23        19.2622   11.6685   -0.4044 C.3         1 MOL       0.1146
     25 O3         19.4548   12.8453   -1.1895 O.3         1 MOL      -0.3864
     26 C22        18.2598   11.9099    0.7243 C.3         1 MOL       0.1385
     27 C21        16.9072   11.6769    0.0154 C.3         1 MOL       0.2010
     28 O4         17.1749   10.6672   -0.9758 O.3         1 MOL      -0.3367
     29 N9         15.8251   11.3295    0.9024 N.pl3       1 MOL      -0.1919
     30 N7         14.4006   11.4106    2.6192 N.2         1 MOL      -0.2958
     31 N6         11.8985    9.7039    2.7164 N.pl3       1 MOL      -0.3152
     32 H1         13.3708    8.1464   -1.1368 H           1 MOL       0.0996
     33 H2         21.6876    7.1839    4.4910 H           1 MOL       0.1104
     34 H3         20.3137    7.4575    1.2464 H           1 MOL       0.2167
     35 H4         16.0701   12.6543    2.5360 H           1 MOL       0.1349
     36 H5         17.5726   13.6736    1.1759 H           1 MOL       0.2101
     37 H6         19.1457    9.2989    5.9743 H           1 MOL       0.0238
     38 H7         20.7029    9.6231    5.2160 H           1 MOL       0.0238
     39 H8         20.5215    8.2531    6.3118 H           1 MOL       0.0238
     40 H9         18.5005    8.2095    2.4576 H           1 MOL       0.0238
     41 H10        19.3849    9.6507    2.9902 H           1 MOL       0.0238
     42 H11        17.9045    9.1901    3.8094 H           1 MOL       0.0238
     43 H12        19.1883    6.1476    5.5616 H           1 MOL       0.0238
     44 H13        18.2898    6.1889    4.0379 H           1 MOL       0.0238
     45 H14        17.8131    7.2396    5.3671 H           1 MOL       0.0238
     46 H15        21.7339    5.5822    2.8356 H           1 MOL       0.2015
     47 H16        20.1390    5.8712    2.4240 H           1 MOL       0.2015
     48 H17        20.5320    5.2876    3.9391 H           1 MOL       0.2015
     49 H18        18.8528    8.9400    0.2027 H           1 MOL       0.0611
     50 H19        18.5228    8.3912   -1.4294 H           1 MOL       0.0611
     51 H20        18.7657   10.7030   -2.2901 H           1 MOL       0.0648
     52 H21        20.2249   11.3774   -0.0054 H           1 MOL       0.0648
     53 H22        18.5892   13.0610   -1.6011 H           1 MOL       0.2100
     54 H23        18.3854   11.1540    1.4971 H           1 MOL       0.0676
     55 H24        16.6201   12.5891   -0.5193 H           1 MOL       0.0996
     56 H25        11.1163    9.1325    2.6647 H           1 MOL       0.1820
     57 H26        11.9885   10.3223    3.4597 H           1 MOL       0.1820
@<TRIPOS>BOND
     1     1     3   1
     2     9     1  am
     3     1    10   2
     4     2     8  ar
     5    13     2  ar
     6     3     7   1
     7     3    17   1
     8     4     5  ar
     9     4    13  ar
    10    29     4   1
    11     5     6  ar
    12    30     5   1
    13     6     8  ar
    14     6    31   1
    15     7    14   1
    16     7    15   1
    17     7    16   1
    18    18     9  am
    19    29    11   1
    20    11    30   2
    21    26    12   1
    22    18    19   2
    23    18    20   2
    24    21    18   1
    25    22    21   1
    26    23    22   1
    27    23    24   1
    28    28    23   1
    29    24    25   1
    30    26    24   1
    31    27    26   1
    32    27    28   1
    33    27    29   1
    34     2    32   1
    35     3    33   1
    36     9    34   1
    37    11    35   1
    38    12    36   1
    39    14    37   1
    40    14    38   1
    41    14    39   1
    42    15    40   1
    43    15    41   1
    44    15    42   1
    45    16    43   1
    46    16    44   1
    47    16    45   1
    48    17    46   1
    49    17    47   1
    50    17    48   1
    51    22    49   1
    52    22    50   1
    53    23    51   1
    54    24    52   1
    55    25    53   1
    56    26    54   1
    57    27    55   1
    58    31    56   1
    59    31    57   1
@<TRIPOS>SUBSTRUCTURE
     1  MOL      1

