@<TRIPOS>MOLECULE
3coy_ligand_045
    57    59
SMALL
GAST_HUCK
****
This file was generated by PARSER (from files_GN.cpp)

@<TRIPOS>ATOM
      1 C1         18.2927   11.4624    1.1373 C.2         1 MOL       0.2465
      2 C2         14.1385    7.6847   -0.4688 C.ar        1 MOL       0.0533
      3 C3         18.4312   11.8647   -0.2618 C.3         1 MOL       0.0714
      4 C4         13.0390    9.6141    0.3340 C.ar        1 MOL       0.1613
      5 C5         13.0800   10.1799   -0.9375 C.ar        1 MOL       0.1045
      6 C6         13.6627    9.4538   -1.9903 C.ar        1 MOL       0.1298
      7 C7         17.4151   11.2024   -1.2759 C.3         1 MOL       0.0226
      8 N1         14.1750    8.2225   -1.7183 N.ar        1 MOL      -0.2698
      9 N2         17.2611   11.8787    1.8526 N.am        1 MOL      -0.1294
     10 O1         19.1593   10.7499    1.6354 O.2         1 MOL      -0.3891
     11 C8         12.1180   11.5650    0.3898 C.2         1 MOL       0.1123
     12 O2         10.7727    8.8372    3.9942 O.3         1 MOL      -0.3836
     13 N3         13.5683    8.3813    0.5496 N.ar        1 MOL      -0.2714
     14 C9         17.1938    9.6901   -0.9398 C.3         1 MOL      -0.0527
     15 C10        16.0167   11.9096   -1.2999 C.3         1 MOL      -0.0527
     16 C11        18.0122   11.2700   -2.7192 C.3         1 MOL      -0.0527
     17 N4         18.4229   13.3435   -0.3104 N.4         1 MOL       0.2383
     18 S1         17.0214   11.6106    3.4991 S.o2        1 MOL       0.1859
     19 O1A        16.5020   13.0325    4.2447 O.2         1 MOL      -0.1218
     20 O2A        18.4440   11.0732    4.2375 O.2         1 MOL      -0.1218
     21 O5         15.8556   10.4020    3.7342 O.3         1 MOL      -0.2161
     22 C25        14.9565   10.4000    4.8475 C.3         1 MOL       0.1073
     23 C24        13.4935   10.1533    4.3956 C.3         1 MOL       0.1161
     24 C23        13.2091    8.7248    3.9048 C.3         1 MOL       0.1146
     25 O3         13.0962    7.7865    4.9753 O.3         1 MOL      -0.3864
     26 C22        11.9024    8.9231    3.1177 C.3         1 MOL       0.1385
     27 C21        12.0804   10.3598    2.5484 C.3         1 MOL       0.2010
     28 O4         13.1257   11.0009    3.2986 O.3         1 MOL      -0.3367
     29 N9         12.4037   10.4800    1.1475 N.pl3       1 MOL      -0.1919
     30 N7         12.5128   11.3923   -0.8863 N.2         1 MOL      -0.2958
     31 N6         13.7207    9.9446   -3.2382 N.pl3       1 MOL      -0.3152
     32 H1         14.5205    6.7566   -0.2964 H           1 MOL       0.0996
     33 H2         19.4432   11.5838   -0.5835 H           1 MOL       0.1104
     34 H3         16.6194   12.4672    1.4186 H           1 MOL       0.2167
     35 H4         11.6494   12.4107    0.7215 H           1 MOL       0.1349
     36 H5          9.9929    8.6804    3.4207 H           1 MOL       0.2101
     37 H6         16.6227    9.1841   -1.7209 H           1 MOL       0.0238
     38 H7         16.6446    9.5803   -0.0018 H           1 MOL       0.0238
     39 H8         18.1544    9.1791   -0.8353 H           1 MOL       0.0238
     40 H9         16.1257   12.9713   -1.5219 H           1 MOL       0.0238
     41 H10        15.5023   11.8141   -0.3448 H           1 MOL       0.0238
     42 H11        15.3683   11.4732   -2.0604 H           1 MOL       0.0238
     43 H12        18.9623   10.7285   -2.7739 H           1 MOL       0.0238
     44 H13        18.1977   12.3016   -3.0245 H           1 MOL       0.0238
     45 H14        17.3284   10.8224   -3.4446 H           1 MOL       0.0238
     46 H15        19.2536   13.7153    0.1533 H           1 MOL       0.2015
     47 H16        17.5851   13.6939    0.1594 H           1 MOL       0.2015
     48 H17        18.4081   13.6627   -1.2797 H           1 MOL       0.2015
     49 H18        15.0010   11.3509    5.3860 H           1 MOL       0.0611
     50 H19        15.2740    9.6185    5.5420 H           1 MOL       0.0611
     51 H20        12.8305   10.3705    5.2427 H           1 MOL       0.0648
     52 H21        14.0029    8.4007    3.2303 H           1 MOL       0.0648
     53 H22        13.9437    7.8492    5.4685 H           1 MOL       0.2100
     54 H23        11.7882    8.1627    2.3428 H           1 MOL       0.0676
     55 H24        11.1551   10.9126    2.7300 H           1 MOL       0.0996
     56 H25        14.1288    9.4203   -3.9456 H           1 MOL       0.1820
     57 H26        13.3471   10.8176   -3.4381 H           1 MOL       0.1820
@<TRIPOS>BOND
     1     1     3   1
     2     9     1  am
     3     1    10   2
     4     2     8  ar
     5    13     2  ar
     6     3     7   1
     7     3    17   1
     8     4     5  ar
     9     4    13  ar
    10    29     4   1
    11     5     6  ar
    12    30     5   1
    13     6     8  ar
    14     6    31   1
    15     7    14   1
    16     7    15   1
    17     7    16   1
    18    18     9  am
    19    29    11   1
    20    11    30   2
    21    26    12   1
    22    18    19   2
    23    18    20   2
    24    21    18   1
    25    22    21   1
    26    23    22   1
    27    23    24   1
    28    28    23   1
    29    24    25   1
    30    26    24   1
    31    27    26   1
    32    27    28   1
    33    27    29   1
    34     2    32   1
    35     3    33   1
    36     9    34   1
    37    11    35   1
    38    12    36   1
    39    14    37   1
    40    14    38   1
    41    14    39   1
    42    15    40   1
    43    15    41   1
    44    15    42   1
    45    16    43   1
    46    16    44   1
    47    16    45   1
    48    17    46   1
    49    17    47   1
    50    17    48   1
    51    22    49   1
    52    22    50   1
    53    23    51   1
    54    24    52   1
    55    25    53   1
    56    26    54   1
    57    27    55   1
    58    31    56   1
    59    31    57   1
@<TRIPOS>SUBSTRUCTURE
     1  MOL      1

