@<TRIPOS>MOLECULE
3coy_ligand_074
    57    59
SMALL
GAST_HUCK
****
This file was generated by PARSER (from files_GN.cpp)

@<TRIPOS>ATOM
      1 C1         22.3160    6.5494    3.5465 C.2         1 MOL       0.2465
      2 C2         14.0330   10.8763   -1.0662 C.ar        1 MOL       0.0533
      3 C3         21.8658    5.3209    4.2036 C.3         1 MOL       0.0714
      4 C4         16.2356   11.5096   -0.4807 C.ar        1 MOL       0.1613
      5 C5         16.6410   11.2954   -1.8003 C.ar        1 MOL       0.1045
      6 C6         15.7086   10.8418   -2.7483 C.ar        1 MOL       0.1298
      7 C7         20.5889    4.6504    3.5516 C.3         1 MOL       0.0226
      8 N1         14.4214   10.6501   -2.3471 N.ar        1 MOL      -0.2698
      9 N2         21.7547    7.7016    3.8747 N.am        1 MOL      -0.1294
     10 O1         23.1654    6.4810    2.6593 O.2         1 MOL      -0.3891
     11 C8         18.3401   11.9585   -0.6831 C.2         1 MOL       0.1123
     12 O2         16.0611   13.1745    3.3402 O.3         1 MOL      -0.3836
     13 N3         14.9368   11.3023   -0.1387 N.ar        1 MOL      -0.2714
     14 C9         20.7908    4.3705    2.0254 C.3         1 MOL      -0.0527
     15 C10        20.2762    3.2879    4.2518 C.3         1 MOL      -0.0527
     16 C11        19.3331    5.5676    3.7326 C.3         1 MOL      -0.0527
     17 N4         23.0061    4.3877    4.3377 N.4         1 MOL       0.2383
     18 S1         22.0431    9.1860    3.1278 S.o2        1 MOL       0.1859
     19 O1A        21.9905    8.9323    1.4576 O.2         1 MOL      -0.1218
     20 O2A        23.5890    9.7593    3.4922 O.2         1 MOL      -0.1218
     21 O5         20.8765   10.3308    3.5771 O.3         1 MOL      -0.2161
     22 C25        19.5012   10.0130    3.7949 C.3         1 MOL       0.1073
     23 C24        18.6042   11.2116    3.4237 C.3         1 MOL       0.1161
     24 C23        17.1022   10.9678    3.6527 C.3         1 MOL       0.1146
     25 O3         16.7313   11.1337    5.0179 O.3         1 MOL      -0.3864
     26 C22        16.4427   11.9646    2.6821 C.3         1 MOL       0.1385
     27 C21        17.5458   12.2262    1.6051 C.3         1 MOL       0.2010
     28 O4         18.6940   11.4637    2.0206 O.3         1 MOL      -0.3367
     29 N9         17.3238   11.9058    0.2139 N.pl3       1 MOL      -0.1919
     30 N7         17.9457   11.5786   -1.9052 N.2         1 MOL      -0.2958
     31 N6         16.0611   10.5958   -4.0151 N.pl3       1 MOL      -0.3152
     32 H1         13.0653   10.7136   -0.7969 H           1 MOL       0.0996
     33 H2         21.6110    5.5811    5.2373 H           1 MOL       0.1104
     34 H3         21.0756    7.6863    4.5655 H           1 MOL       0.2167
     35 H4         19.3016   12.2336   -0.4669 H           1 MOL       0.1349
     36 H5         15.8684   13.7866    2.6020 H           1 MOL       0.2101
     37 H6         19.9098    3.8871    1.5971 H           1 MOL       0.0238
     38 H7         21.6500    3.7166    1.8634 H           1 MOL       0.0238
     39 H8         20.9596    5.2996    1.4787 H           1 MOL       0.0238
     40 H9         20.2108    3.4191    5.3346 H           1 MOL       0.0238
     41 H10        21.0555    2.5501    4.0440 H           1 MOL       0.0238
     42 H11        19.3276    2.8704    3.9035 H           1 MOL       0.0238
     43 H12        19.4513    6.5066    3.1914 H           1 MOL       0.0238
     44 H13        19.1729    5.8013    4.7893 H           1 MOL       0.0238
     45 H14        18.4281    5.0834    3.3546 H           1 MOL       0.0238
     46 H15        23.7995    4.8781    4.7574 H           1 MOL       0.2015
     47 H16        23.2851    4.0288    3.4218 H           1 MOL       0.2015
     48 H17        22.7483    3.6049    4.9420 H           1 MOL       0.2015
     49 H18        19.3619    9.7582    4.8439 H           1 MOL       0.0611
     50 H19        19.2244    9.1500    3.1857 H           1 MOL       0.0611
     51 H20        18.9301   12.1069    3.9663 H           1 MOL       0.0648
     52 H21        16.8394    9.9537    3.3479 H           1 MOL       0.0648
     53 H22        16.8613   12.0852    5.2083 H           1 MOL       0.2100
     54 H23        15.5342   11.5299    2.2761 H           1 MOL       0.0676
     55 H24        17.8226   13.2849    1.6383 H           1 MOL       0.0996
     56 H25        15.4058   10.2778   -4.6570 H           1 MOL       0.1820
     57 H26        16.9794   10.7323   -4.2943 H           1 MOL       0.1820
@<TRIPOS>BOND
     1     1     3   1
     2     9     1  am
     3     1    10   2
     4     2     8  ar
     5    13     2  ar
     6     3     7   1
     7     3    17   1
     8     4     5  ar
     9     4    13  ar
    10    29     4   1
    11     5     6  ar
    12    30     5   1
    13     6     8  ar
    14     6    31   1
    15     7    14   1
    16     7    15   1
    17     7    16   1
    18    18     9  am
    19    29    11   1
    20    11    30   2
    21    26    12   1
    22    18    19   2
    23    18    20   2
    24    21    18   1
    25    22    21   1
    26    23    22   1
    27    23    24   1
    28    28    23   1
    29    24    25   1
    30    26    24   1
    31    27    26   1
    32    27    28   1
    33    27    29   1
    34     2    32   1
    35     3    33   1
    36     9    34   1
    37    11    35   1
    38    12    36   1
    39    14    37   1
    40    14    38   1
    41    14    39   1
    42    15    40   1
    43    15    41   1
    44    15    42   1
    45    16    43   1
    46    16    44   1
    47    16    45   1
    48    17    46   1
    49    17    47   1
    50    17    48   1
    51    22    49   1
    52    22    50   1
    53    23    51   1
    54    24    52   1
    55    25    53   1
    56    26    54   1
    57    27    55   1
    58    31    56   1
    59    31    57   1
@<TRIPOS>SUBSTRUCTURE
     1  MOL      1

