@<TRIPOS>MOLECULE
3coy_ligand_059
    57    59
SMALL
GAST_HUCK
****
This file was generated by PARSER (from files_GN.cpp)

@<TRIPOS>ATOM
      1 C1         17.9873   11.0538   -0.0042 C.2         1 MOL       0.2465
      2 C2         12.1051    9.3803    9.2313 C.ar        1 MOL       0.0533
      3 C3         17.7763   10.8307   -1.4371 C.3         1 MOL       0.0714
      4 C4         13.5505   10.1286    7.5314 C.ar        1 MOL       0.1613
      5 C5         13.8569   11.2620    8.2831 C.ar        1 MOL       0.1045
      6 C6         13.2479   11.4483    9.5334 C.ar        1 MOL       0.1298
      7 C7         16.2598   10.7535   -1.8982 C.3         1 MOL       0.0226
      8 N1         12.3904   10.4879    9.9718 N.ar        1 MOL      -0.2698
      9 N2         17.9707   10.0329    0.8446 N.am        1 MOL      -0.1294
     10 O1         18.1953   12.1898    0.4095 O.2         1 MOL      -0.3891
     11 C8         15.0360   11.3050    6.5008 C.2         1 MOL       0.1123
     12 O2         12.7744    7.9259    3.8542 O.3         1 MOL      -0.3836
     13 N3         12.6834    9.1992    8.0076 N.ar        1 MOL      -0.2714
     14 C9         15.6084    9.4226   -1.3930 C.3         1 MOL      -0.0527
     15 C10        15.4169   11.9550   -1.3605 C.3         1 MOL      -0.0527
     16 C11        16.1486   10.7722   -3.4583 C.3         1 MOL      -0.0527
     17 N4         18.5695   11.8163   -2.2075 N.4         1 MOL       0.2383
     18 S1         18.2976   10.1401    2.4964 S.o2        1 MOL       0.1859
     19 O1A        19.8428   10.7701    2.7617 O.2         1 MOL      -0.1218
     20 O2A        18.2065    8.5944    3.1719 O.2         1 MOL      -0.1218
     21 O5         17.1973   11.1748    3.2670 O.3         1 MOL      -0.2161
     22 C25        15.8057   11.3006    2.9646 C.3         1 MOL       0.1073
     23 C24        15.0049   10.0041    3.2437 C.3         1 MOL       0.1161
     24 C23        13.4769   10.2194    3.3455 C.3         1 MOL       0.1146
     25 O3         12.8324   10.0301    2.0830 O.3         1 MOL      -0.3864
     26 C22        13.0746    9.2081    4.4230 C.3         1 MOL       0.1385
     27 C21        14.3209    9.1906    5.3410 C.3         1 MOL       0.2010
     28 O4         15.4444    9.3873    4.4650 O.3         1 MOL      -0.3367
     29 N9         14.2830   10.1811    6.3962 N.pl3       1 MOL      -0.1919
     30 N7         14.7764   11.9779    7.6316 N.2         1 MOL      -0.2958
     31 N6         13.5240   12.5193   10.2970 N.pl3       1 MOL      -0.3152
     32 H1         11.4626    8.6827    9.5991 H           1 MOL       0.0996
     33 H2         18.2553    9.8790   -1.6898 H           1 MOL       0.1104
     34 H3         17.7881    9.1509    0.4854 H           1 MOL       0.2167
     35 H4         15.7440   11.6200    5.8393 H           1 MOL       0.1349
     36 H5         13.4486    7.7629    3.1617 H           1 MOL       0.2101
     37 H6         14.5761    9.3379   -1.7359 H           1 MOL       0.0238
     38 H7         15.5981    9.3699   -0.3051 H           1 MOL       0.0238
     39 H8         16.1595    8.5589   -1.7679 H           1 MOL       0.0238
     40 H9         15.8966   12.9040   -1.5969 H           1 MOL       0.0238
     41 H10        15.3045   11.8927   -0.2837 H           1 MOL       0.0238
     42 H11        14.4154   11.9612   -1.7934 H           1 MOL       0.0238
     43 H12        16.7956   10.0152   -3.9036 H           1 MOL       0.0238
     44 H13        16.4383   11.7446   -3.8617 H           1 MOL       0.0238
     45 H14        15.1242   10.5795   -3.7852 H           1 MOL       0.0238
     46 H15        19.5395   11.8125   -1.8761 H           1 MOL       0.2015
     47 H16        18.1791   12.7554   -2.0974 H           1 MOL       0.2015
     48 H17        18.5658   11.5674   -3.1994 H           1 MOL       0.2015
     49 H18        15.6869   11.5873    1.9226 H           1 MOL       0.0611
     50 H19        15.4137   12.1214    3.5694 H           1 MOL       0.0611
     51 H20        15.2220    9.2863    2.4490 H           1 MOL       0.0648
     52 H21        13.2455   11.2289    3.7029 H           1 MOL       0.0648
     53 H22        11.8755   10.1039    2.2754 H           1 MOL       0.2100
     54 H23        12.1852    9.5353    4.9709 H           1 MOL       0.0676
     55 H24        14.4357    8.2012    5.7943 H           1 MOL       0.0996
     56 H25        13.1010   12.6205   11.1624 H           1 MOL       0.1820
     57 H26        14.1615   13.1880    9.9969 H           1 MOL       0.1820
@<TRIPOS>BOND
     1     1     3   1
     2     9     1  am
     3     1    10   2
     4     2     8  ar
     5    13     2  ar
     6     3     7   1
     7     3    17   1
     8     4     5  ar
     9     4    13  ar
    10    29     4   1
    11     5     6  ar
    12    30     5   1
    13     6     8  ar
    14     6    31   1
    15     7    14   1
    16     7    15   1
    17     7    16   1
    18    18     9  am
    19    29    11   1
    20    11    30   2
    21    26    12   1
    22    18    19   2
    23    18    20   2
    24    21    18   1
    25    22    21   1
    26    23    22   1
    27    23    24   1
    28    28    23   1
    29    24    25   1
    30    26    24   1
    31    27    26   1
    32    27    28   1
    33    27    29   1
    34     2    32   1
    35     3    33   1
    36     9    34   1
    37    11    35   1
    38    12    36   1
    39    14    37   1
    40    14    38   1
    41    14    39   1
    42    15    40   1
    43    15    41   1
    44    15    42   1
    45    16    43   1
    46    16    44   1
    47    16    45   1
    48    17    46   1
    49    17    47   1
    50    17    48   1
    51    22    49   1
    52    22    50   1
    53    23    51   1
    54    24    52   1
    55    25    53   1
    56    26    54   1
    57    27    55   1
    58    31    56   1
    59    31    57   1
@<TRIPOS>SUBSTRUCTURE
     1  MOL      1

