@<TRIPOS>MOLECULE
3coy_ligand_028
    57    59
SMALL
GAST_HUCK
****
This file was generated by PARSER (from files_GN.cpp)

@<TRIPOS>ATOM
      1 C1         18.2811   10.9820   -0.2354 C.2         1 MOL       0.2465
      2 C2         16.6359    7.4958    7.6729 C.ar        1 MOL       0.0533
      3 C3         17.7539   10.6589   -1.5558 C.3         1 MOL       0.0714
      4 C4         14.7084    8.3596    6.6257 C.ar        1 MOL       0.1613
      5 C5         13.9591    8.1048    7.7745 C.ar        1 MOL       0.1045
      6 C6         14.5950    7.5509    8.8956 C.ar        1 MOL       0.1298
      7 C7         16.1777   10.6960   -1.7136 C.3         1 MOL       0.0226
      8 N1         15.9202    7.2537    8.8065 N.ar        1 MOL      -0.2698
      9 N2         18.6955   10.0276    0.5916 N.am        1 MOL      -0.1294
     10 O1         18.3815   12.1672    0.0645 O.2         1 MOL      -0.3891
     11 C8         12.6542    8.9105    6.2751 C.2         1 MOL       0.1123
     12 O2         13.3720   11.1899    2.9408 O.3         1 MOL      -0.3836
     13 N3         16.0338    8.0543    6.5922 N.ar        1 MOL      -0.2714
     14 C9         15.5212   11.9254   -1.0047 C.3         1 MOL      -0.0527
     15 C10        15.7747   10.7444   -3.2246 C.3         1 MOL      -0.0527
     16 C11        15.5622    9.3964   -1.0996 C.3         1 MOL      -0.0527
     17 N4         18.4675   11.5217   -2.5198 N.4         1 MOL       0.2383
     18 S1         19.4633   10.2954    2.0733 S.o2        1 MOL       0.1859
     19 O1A        19.7788   11.9343    2.3766 O.2         1 MOL      -0.1218
     20 O2A        20.8924    9.4020    2.0384 O.2         1 MOL      -0.1218
     21 O5         18.4792    9.6077    3.2743 O.3         1 MOL      -0.2161
     22 C25        17.6795   10.3827    4.1651 C.3         1 MOL       0.1073
     23 C24        16.2018   10.3658    3.7093 C.3         1 MOL       0.1161
     24 C23        15.3479   11.4525    4.3842 C.3         1 MOL       0.1146
     25 O3         15.5289   12.7514    3.8231 O.3         1 MOL      -0.3864
     26 C22        13.9375   10.8820    4.2173 C.3         1 MOL       0.1385
     27 C21        14.1792    9.3571    4.3751 C.3         1 MOL       0.2010
     28 O4         15.5545    9.1150    4.0023 O.3         1 MOL      -0.3367
     29 N9         13.8823    8.8895    5.7076 N.pl3       1 MOL      -0.1919
     30 N7         12.6868    8.4488    7.5365 N.2         1 MOL      -0.2958
     31 N6         13.9245    7.3124   10.0345 N.pl3       1 MOL      -0.3152
     32 H1         17.6268    7.2544    7.6358 H           1 MOL       0.0996
     33 H2         18.0957    9.6512   -1.8141 H           1 MOL       0.1104
     34 H3         18.5243    9.1034    0.3369 H           1 MOL       0.2167
     35 H4         11.8030    9.2382    5.8180 H           1 MOL       0.1349
     36 H5         13.8970   10.6846    2.2868 H           1 MOL       0.2101
     37 H6         14.4475   11.9760   -1.2146 H           1 MOL       0.0238
     38 H7         15.9744   12.8529   -1.3554 H           1 MOL       0.0238
     39 H8         15.6506   11.8686    0.0789 H           1 MOL       0.0238
     40 H9         16.2573    9.9360   -3.7792 H           1 MOL       0.0238
     41 H10        16.0751   11.6921   -3.6793 H           1 MOL       0.0238
     42 H11        14.6921   10.6501   -3.3553 H           1 MOL       0.0238
     43 H12        15.7996    9.3144   -0.0372 H           1 MOL       0.0238
     44 H13        15.9525    8.5075   -1.6008 H           1 MOL       0.0238
     45 H14        14.4742    9.3836   -1.2039 H           1 MOL       0.0238
     46 H15        19.4755   11.4595   -2.3493 H           1 MOL       0.2015
     47 H16        18.1644   12.4952   -2.4205 H           1 MOL       0.2015
     48 H17        18.2824   11.2039   -3.4686 H           1 MOL       0.2015
     49 H18        18.0311   11.4154    4.2046 H           1 MOL       0.0611
     50 H19        17.7748    9.9651    5.1683 H           1 MOL       0.0611
     51 H20        16.1689   10.5177    2.6275 H           1 MOL       0.0648
     52 H21        15.5821   11.5135    5.4545 H           1 MOL       0.0648
     53 H22        15.5085   12.6407    2.8500 H           1 MOL       0.2100
     54 H23        13.2834   11.2913    4.9871 H           1 MOL       0.0676
     55 H24        13.5452    8.8010    3.6774 H           1 MOL       0.0996
     56 H25        14.3457    6.8411   10.7664 H           1 MOL       0.1820
     57 H26        13.0021    7.5930   10.1185 H           1 MOL       0.1820
@<TRIPOS>BOND
     1     1     3   1
     2     9     1  am
     3     1    10   2
     4     2     8  ar
     5    13     2  ar
     6     3     7   1
     7     3    17   1
     8     4     5  ar
     9     4    13  ar
    10    29     4   1
    11     5     6  ar
    12    30     5   1
    13     6     8  ar
    14     6    31   1
    15     7    14   1
    16     7    15   1
    17     7    16   1
    18    18     9  am
    19    29    11   1
    20    11    30   2
    21    26    12   1
    22    18    19   2
    23    18    20   2
    24    21    18   1
    25    22    21   1
    26    23    22   1
    27    23    24   1
    28    28    23   1
    29    24    25   1
    30    26    24   1
    31    27    26   1
    32    27    28   1
    33    27    29   1
    34     2    32   1
    35     3    33   1
    36     9    34   1
    37    11    35   1
    38    12    36   1
    39    14    37   1
    40    14    38   1
    41    14    39   1
    42    15    40   1
    43    15    41   1
    44    15    42   1
    45    16    43   1
    46    16    44   1
    47    16    45   1
    48    17    46   1
    49    17    47   1
    50    17    48   1
    51    22    49   1
    52    22    50   1
    53    23    51   1
    54    24    52   1
    55    25    53   1
    56    26    54   1
    57    27    55   1
    58    31    56   1
    59    31    57   1
@<TRIPOS>SUBSTRUCTURE
     1  MOL      1

