@<TRIPOS>MOLECULE
3coy_ligand_030
    57    59
SMALL
GAST_HUCK
****
This file was generated by PARSER (from files_GN.cpp)

@<TRIPOS>ATOM
      1 C1         21.7377    9.8564    1.9281 C.2         1 MOL       0.2465
      2 C2         14.9888   10.9934   -4.9707 C.ar        1 MOL       0.0533
      3 C3         21.7054    8.5275    2.5434 C.3         1 MOL       0.0714
      4 C4         14.1180   10.7222   -2.8006 C.ar        1 MOL       0.1613
      5 C5         12.9892   10.0891   -3.3173 C.ar        1 MOL       0.1045
      6 C6         12.8826    9.9124   -4.7047 C.ar        1 MOL       0.1298
      7 C7         20.7553    8.3388    3.7998 C.3         1 MOL       0.0226
      8 N1         13.8913   10.3730   -5.4922 N.ar        1 MOL      -0.2698
      9 N2         20.7378   10.2779    1.1700 N.am        1 MOL      -0.1294
     10 O1         22.7152   10.5724    2.1153 O.2         1 MOL      -0.3891
     11 C8         12.8219   10.1018   -1.1772 C.2         1 MOL       0.1123
     12 O2         15.4398    9.7943    1.5325 O.3         1 MOL      -0.3836
     13 N3         15.1042   11.1625   -3.6249 N.ar        1 MOL      -0.2714
     14 C9         20.9104    6.8791    4.3531 C.3         1 MOL      -0.0527
     15 C10        21.1657    9.3190    4.9497 C.3         1 MOL      -0.0527
     16 C11        19.2391    8.5626    3.4733 C.3         1 MOL      -0.0527
     17 N4         21.4887    7.5149    1.4882 N.4         1 MOL       0.2383
     18 S1         20.5973   11.7649    0.3805 S.o2        1 MOL       0.1859
     19 O1A        22.1147   12.3525   -0.0890 O.2         1 MOL      -0.1218
     20 O2A        19.8599   12.8704    1.4259 O.2         1 MOL      -0.1218
     21 O5         19.6199   11.5555   -0.9882 O.3         1 MOL      -0.2161
     22 C25        18.3744   12.2113   -1.2511 C.3         1 MOL       0.1073
     23 C24        17.1958   11.6960   -0.3850 C.3         1 MOL       0.1161
     24 C23        17.1579   10.1688   -0.2047 C.3         1 MOL       0.1146
     25 O3         18.0370    9.7529    0.8331 O.3         1 MOL      -0.3864
     26 C22        15.6813    9.8956    0.1263 C.3         1 MOL       0.1385
     27 C21        14.9475   11.1255   -0.4742 C.3         1 MOL       0.2010
     28 O4         15.9462   12.0079   -1.0171 O.3         1 MOL      -0.3367
     29 N9         13.9891   10.7194   -1.4600 N.pl3       1 MOL      -0.1919
     30 N7         12.2037    9.7089   -2.3023 N.2         1 MOL      -0.2958
     31 N6         11.8329    9.2743   -5.2414 N.pl3       1 MOL      -0.3152
     32 H1         15.7270   11.3256   -5.5919 H           1 MOL       0.0996
     33 H2         22.7180    8.3189    2.9033 H           1 MOL       0.1104
     34 H3         19.9973    9.6658    1.0525 H           1 MOL       0.2167
     35 H4         12.4685    9.9134   -0.2377 H           1 MOL       0.1349
     36 H5         15.8324   10.6026    1.9252 H           1 MOL       0.2101
     37 H6         20.3230    6.7348    5.2632 H           1 MOL       0.0238
     38 H7         21.9532    6.6640    4.5954 H           1 MOL       0.0238
     39 H8         20.5732    6.1425    3.6210 H           1 MOL       0.0238
     40 H9         20.9770   10.3543    4.6628 H           1 MOL       0.0238
     41 H10        22.2271    9.2163    5.1786 H           1 MOL       0.0238
     42 H11        20.5978    9.1173    5.8607 H           1 MOL       0.0238
     43 H12        18.9152    7.9294    2.6435 H           1 MOL       0.0238
     44 H13        19.0319    9.6031    3.2123 H           1 MOL       0.0238
     45 H14        18.6152    8.3142    4.3376 H           1 MOL       0.0238
     46 H15        22.0902    7.7165    0.6856 H           1 MOL       0.2015
     47 H16        20.5158    7.4914    1.1779 H           1 MOL       0.2015
     48 H17        21.7366    6.5952    1.8548 H           1 MOL       0.2015
     49 H18        18.1427   12.0466   -2.3060 H           1 MOL       0.0611
     50 H19        18.4928   13.2854   -1.0952 H           1 MOL       0.0611
     51 H20        17.2254   12.1862    0.5966 H           1 MOL       0.0648
     52 H21        17.4297    9.6631   -1.1409 H           1 MOL       0.0648
     53 H22        18.0390    8.7813    0.7634 H           1 MOL       0.2100
     54 H23        15.3687    8.9507   -0.3317 H           1 MOL       0.0676
     55 H24        14.4311   11.6844    0.3166 H           1 MOL       0.0996
     56 H25        11.8001    9.0924   -6.1926 H           1 MOL       0.1820
     57 H26        11.1253    8.9411   -4.6674 H           1 MOL       0.1820
@<TRIPOS>BOND
     1     1     3   1
     2     9     1  am
     3     1    10   2
     4     2     8  ar
     5    13     2  ar
     6     3     7   1
     7     3    17   1
     8     4     5  ar
     9     4    13  ar
    10    29     4   1
    11     5     6  ar
    12    30     5   1
    13     6     8  ar
    14     6    31   1
    15     7    14   1
    16     7    15   1
    17     7    16   1
    18    18     9  am
    19    29    11   1
    20    11    30   2
    21    26    12   1
    22    18    19   2
    23    18    20   2
    24    21    18   1
    25    22    21   1
    26    23    22   1
    27    23    24   1
    28    28    23   1
    29    24    25   1
    30    26    24   1
    31    27    26   1
    32    27    28   1
    33    27    29   1
    34     2    32   1
    35     3    33   1
    36     9    34   1
    37    11    35   1
    38    12    36   1
    39    14    37   1
    40    14    38   1
    41    14    39   1
    42    15    40   1
    43    15    41   1
    44    15    42   1
    45    16    43   1
    46    16    44   1
    47    16    45   1
    48    17    46   1
    49    17    47   1
    50    17    48   1
    51    22    49   1
    52    22    50   1
    53    23    51   1
    54    24    52   1
    55    25    53   1
    56    26    54   1
    57    27    55   1
    58    31    56   1
    59    31    57   1
@<TRIPOS>SUBSTRUCTURE
     1  MOL      1

