@<TRIPOS>MOLECULE
3coy_ligand_046
    57    59
SMALL
GAST_HUCK
****
This file was generated by PARSER (from files_GN.cpp)

@<TRIPOS>ATOM
      1 C1         14.5480    9.6572    4.7327 C.2         1 MOL       0.2465
      2 C2         18.6194    9.1951    2.4411 C.ar        1 MOL       0.0533
      3 C3         14.2754    8.9807    6.0065 C.3         1 MOL       0.0714
      4 C4         18.7185    9.8327    0.1711 C.ar        1 MOL       0.1613
      5 C5         19.9385    9.1746    0.0326 C.ar        1 MOL       0.1045
      6 C6         20.4977    8.5165    1.1415 C.ar        1 MOL       0.1298
      7 C7         14.8445    9.6988    7.3008 C.3         1 MOL       0.0226
      8 N1         19.8154    8.5552    2.3187 N.ar        1 MOL      -0.2698
      9 N2         13.9223   10.7911    4.4450 N.am        1 MOL      -0.1294
     10 O1         15.3018    9.1262    3.9304 O.2         1 MOL      -0.3891
     11 C8         19.4401   10.0836   -1.8490 C.2         1 MOL       0.1123
     12 O2         16.0344   11.5253   -3.5002 O.3         1 MOL      -0.3836
     13 N3         18.0730    9.8325    1.3677 N.ar        1 MOL      -0.2714
     14 C9         14.4509   11.2110    7.3997 C.3         1 MOL      -0.0527
     15 C10        14.3160    8.9822    8.5931 C.3         1 MOL      -0.0527
     16 C11        16.4064    9.5969    7.3159 C.3         1 MOL      -0.0527
     17 N4         12.8255    8.7134    6.0622 N.4         1 MOL       0.2383
     18 S1         14.0987   11.7305    3.0586 S.o2        1 MOL       0.1859
     19 O1A        15.0222   13.0621    3.5320 O.2         1 MOL      -0.1218
     20 O2A        12.5792   12.2677    2.5464 O.2         1 MOL      -0.1218
     21 O5         14.9366   10.8915    1.8509 O.3         1 MOL      -0.2161
     22 C25        14.3838   10.3469    0.6551 C.3         1 MOL       0.1073
     23 C24        15.0664   10.9735   -0.5933 C.3         1 MOL       0.1161
     24 C23        15.1896    9.9992   -1.7814 C.3         1 MOL       0.1146
     25 O3         13.9914    9.9708   -2.5613 O.3         1 MOL      -0.3864
     26 C22        16.4097   10.5445   -2.5318 C.3         1 MOL       0.1385
     27 C21        17.2689   11.1782   -1.4022 C.3         1 MOL       0.2010
     28 O4         16.3978   11.4052   -0.2833 O.3         1 MOL      -0.3367
     29 N9         18.4139   10.3860   -1.0243 N.pl3       1 MOL      -0.1919
     30 N7         20.3627    9.3269   -1.2297 N.2         1 MOL      -0.2958
     31 N6         21.6714    7.8707    1.0731 N.pl3       1 MOL      -0.3152
     32 H1         18.1400    9.2075    3.3403 H           1 MOL       0.0996
     33 H2         14.7340    7.9861    5.9633 H           1 MOL       0.1104
     34 H3         13.2862   11.1202    5.0974 H           1 MOL       0.2167
     35 H4         19.5149   10.3763   -2.8244 H           1 MOL       0.1349
     36 H5         16.8343   11.6296   -4.0640 H           1 MOL       0.2101
     37 H6         14.7768   11.6379    8.3507 H           1 MOL       0.0238
     38 H7         13.3691   11.3404    7.3202 H           1 MOL       0.0238
     39 H8         14.9261   11.7928    6.6073 H           1 MOL       0.0238
     40 H9         14.5424    7.9138    8.5665 H           1 MOL       0.0238
     41 H10        13.2356    9.1007    8.6923 H           1 MOL       0.0238
     42 H11        14.7743    9.4025    9.4912 H           1 MOL       0.0238
     43 H12        16.8407   10.1152    6.4582 H           1 MOL       0.0238
     44 H13        16.7270    8.5532    7.2804 H           1 MOL       0.0238
     45 H14        16.8223   10.0435    8.2225 H           1 MOL       0.0238
     46 H15        12.5313    8.2631    5.1924 H           1 MOL       0.2015
     47 H16        12.3086    9.5854    6.1810 H           1 MOL       0.2015
     48 H17        12.6182    8.0872    6.8454 H           1 MOL       0.2015
     49 H18        13.3060   10.5077    0.6078 H           1 MOL       0.0611
     50 H19        14.5574    9.2701    0.6986 H           1 MOL       0.0611
     51 H20        14.5053   11.8611   -0.8998 H           1 MOL       0.0648
     52 H21        15.4151    8.9820   -1.4434 H           1 MOL       0.0648
     53 H22        14.1686    9.3229   -3.2796 H           1 MOL       0.2100
     54 H23        16.9333    9.7402   -3.0516 H           1 MOL       0.0676
     55 H24        17.6393   12.1544   -1.7259 H           1 MOL       0.0996
     56 H25        22.0293    7.4361    1.8628 H           1 MOL       0.1820
     57 H26        22.1687    7.8407    0.2400 H           1 MOL       0.1820
@<TRIPOS>BOND
     1     1     3   1
     2     9     1  am
     3     1    10   2
     4     2     8  ar
     5    13     2  ar
     6     3     7   1
     7     3    17   1
     8     4     5  ar
     9     4    13  ar
    10    29     4   1
    11     5     6  ar
    12    30     5   1
    13     6     8  ar
    14     6    31   1
    15     7    14   1
    16     7    15   1
    17     7    16   1
    18    18     9  am
    19    29    11   1
    20    11    30   2
    21    26    12   1
    22    18    19   2
    23    18    20   2
    24    21    18   1
    25    22    21   1
    26    23    22   1
    27    23    24   1
    28    28    23   1
    29    24    25   1
    30    26    24   1
    31    27    26   1
    32    27    28   1
    33    27    29   1
    34     2    32   1
    35     3    33   1
    36     9    34   1
    37    11    35   1
    38    12    36   1
    39    14    37   1
    40    14    38   1
    41    14    39   1
    42    15    40   1
    43    15    41   1
    44    15    42   1
    45    16    43   1
    46    16    44   1
    47    16    45   1
    48    17    46   1
    49    17    47   1
    50    17    48   1
    51    22    49   1
    52    22    50   1
    53    23    51   1
    54    24    52   1
    55    25    53   1
    56    26    54   1
    57    27    55   1
    58    31    56   1
    59    31    57   1
@<TRIPOS>SUBSTRUCTURE
     1  MOL      1

