@<TRIPOS>MOLECULE
3coy_ligand_063
    57    59
SMALL
GAST_HUCK
****
This file was generated by PARSER (from files_GN.cpp)

@<TRIPOS>ATOM
      1 C1         15.4768    9.6633    2.6800 C.2         1 MOL       0.2465
      2 C2         19.2912    8.8870   -0.8634 C.ar        1 MOL       0.0533
      3 C3         14.4032    9.4920    1.7010 C.3         1 MOL       0.0714
      4 C4         20.3698   10.6901    0.2013 C.ar        1 MOL       0.1613
      5 C5         19.7031   11.5947   -0.6165 C.ar        1 MOL       0.1045
      6 C6         18.8146   11.1038   -1.5888 C.ar        1 MOL       0.1298
      7 C7         13.1279   10.4490    1.8755 C.3         1 MOL       0.0226
      8 N1         18.6304    9.7594   -1.6735 N.ar        1 MOL      -0.2698
      9 N2         16.2850   10.7129    2.5948 N.am        1 MOL      -0.1294
     10 O1         15.6336    8.8285    3.5636 O.2         1 MOL      -0.3891
     11 C8         21.0232   12.6886    0.6797 C.2         1 MOL       0.1123
     12 O2         23.9611   11.2306    3.4966 O.3         1 MOL      -0.3836
     13 N3         20.1683    9.3518    0.0658 N.ar        1 MOL      -0.2714
     14 C9         12.5994   10.9866    0.5029 C.3         1 MOL      -0.0527
     15 C10        11.9545    9.6418    2.5287 C.3         1 MOL      -0.0527
     16 C11        13.3726   11.7049    2.7868 C.3         1 MOL      -0.0527
     17 N4         15.0204    9.5025    0.3566 N.4         1 MOL       0.2383
     18 S1         17.5582   11.0635    3.6364 S.o2        1 MOL       0.1859
     19 O1A        17.1982   10.6487    5.2296 O.2         1 MOL      -0.1218
     20 O2A        17.8948   12.7149    3.4935 O.2         1 MOL      -0.1218
     21 O5         18.9124   10.2114    3.0761 O.3         1 MOL      -0.2161
     22 C25        19.7515    9.3549    3.8522 C.3         1 MOL       0.1073
     23 C24        21.2484    9.7443    3.7491 C.3         1 MOL       0.1161
     24 C23        21.5847   11.1942    4.1689 C.3         1 MOL       0.1146
     25 O3         22.0609   11.2723    5.5130 O.3         1 MOL      -0.3864
     26 C22        22.6311   11.6096    3.1247 C.3         1 MOL       0.1385
     27 C21        22.1857   10.8098    1.8782 C.3         1 MOL       0.2010
     28 O4         21.7460    9.5492    2.4150 O.3         1 MOL      -0.3367
     29 N9         21.1832   11.3875    1.0175 N.pl3       1 MOL      -0.1919
     30 N7         20.1218   12.8284   -0.3104 N.2         1 MOL      -0.2958
     31 N6         18.1667   11.9169   -2.4359 N.pl3       1 MOL      -0.3152
     32 H1         19.1350    7.8828   -0.9561 H           1 MOL       0.0996
     33 H2         14.0654    8.4534    1.7859 H           1 MOL       0.1104
     34 H3         16.1446   11.3253    1.8574 H           1 MOL       0.2167
     35 H4         21.5441   13.4729    1.0732 H           1 MOL       0.1349
     36 H5         24.0027   10.2551    3.3946 H           1 MOL       0.2101
     37 H6         11.6952   11.5852    0.6297 H           1 MOL       0.0238
     38 H7         12.3607   10.1643   -0.1722 H           1 MOL       0.0238
     39 H8         13.3467   11.6203    0.0239 H           1 MOL       0.0238
     40 H9         12.2527    9.2453    3.4993 H           1 MOL       0.0238
     41 H10        11.6599    8.8038    1.8957 H           1 MOL       0.0238
     42 H11        11.0729   10.2678    2.6760 H           1 MOL       0.0238
     43 H12        14.1896   12.3160    2.4036 H           1 MOL       0.0238
     44 H13        13.6172   11.4049    3.8068 H           1 MOL       0.0238
     45 H14        12.4845   12.3391    2.8414 H           1 MOL       0.0238
     46 H15        15.8090    8.8531    0.3235 H           1 MOL       0.2015
     47 H16        15.3471   10.4401    0.1244 H           1 MOL       0.2015
     48 H17        14.3324    9.2067   -0.3334 H           1 MOL       0.2015
     49 H18        19.6266    8.3381    3.4739 H           1 MOL       0.0611
     50 H19        19.4504    9.3617    4.9002 H           1 MOL       0.0611
     51 H20        21.8106    9.0532    4.3839 H           1 MOL       0.0648
     52 H21        20.7102   11.8437    4.0665 H           1 MOL       0.0648
     53 H22        22.2115   12.2234    5.6802 H           1 MOL       0.2100
     54 H23        22.6257   12.6900    2.9710 H           1 MOL       0.0676
     55 H24        23.0511   10.6268    1.2396 H           1 MOL       0.0996
     56 H25        17.5857   11.5411   -3.1165 H           1 MOL       0.1820
     57 H26        18.2870   12.8769   -2.3846 H           1 MOL       0.1820
@<TRIPOS>BOND
     1     1     3   1
     2     9     1  am
     3     1    10   2
     4     2     8  ar
     5    13     2  ar
     6     3     7   1
     7     3    17   1
     8     4     5  ar
     9     4    13  ar
    10    29     4   1
    11     5     6  ar
    12    30     5   1
    13     6     8  ar
    14     6    31   1
    15     7    14   1
    16     7    15   1
    17     7    16   1
    18    18     9  am
    19    29    11   1
    20    11    30   2
    21    26    12   1
    22    18    19   2
    23    18    20   2
    24    21    18   1
    25    22    21   1
    26    23    22   1
    27    23    24   1
    28    28    23   1
    29    24    25   1
    30    26    24   1
    31    27    26   1
    32    27    28   1
    33    27    29   1
    34     2    32   1
    35     3    33   1
    36     9    34   1
    37    11    35   1
    38    12    36   1
    39    14    37   1
    40    14    38   1
    41    14    39   1
    42    15    40   1
    43    15    41   1
    44    15    42   1
    45    16    43   1
    46    16    44   1
    47    16    45   1
    48    17    46   1
    49    17    47   1
    50    17    48   1
    51    22    49   1
    52    22    50   1
    53    23    51   1
    54    24    52   1
    55    25    53   1
    56    26    54   1
    57    27    55   1
    58    31    56   1
    59    31    57   1
@<TRIPOS>SUBSTRUCTURE
     1  MOL      1

