@<TRIPOS>MOLECULE
3coy_ligand_014
    57    59
SMALL
GAST_HUCK
****
This file was generated by PARSER (from files_GN.cpp)

@<TRIPOS>ATOM
      1 C1         16.1497    9.8936    4.6746 C.2         1 MOL       0.2465
      2 C2         23.5520   12.7728    2.8644 C.ar        1 MOL       0.0533
      3 C3         16.2822    9.5869    6.1014 C.3         1 MOL       0.0714
      4 C4         22.4086   10.8062    2.2553 C.ar        1 MOL       0.1613
      5 C5         23.0002   10.1162    3.3101 C.ar        1 MOL       0.1045
      6 C6         23.8953   10.7980    4.1512 C.ar        1 MOL       0.1298
      7 C7         14.9190    9.4418    6.8967 C.3         1 MOL       0.0226
      8 N1         24.1457   12.1119    3.8965 N.ar        1 MOL      -0.2698
      9 N2         16.4247   11.1154    4.2436 N.am        1 MOL      -0.1294
     10 O1         15.7631    9.0192    3.9064 O.2         1 MOL      -0.3891
     11 C8         21.6886    8.7743    2.2607 C.2         1 MOL       0.1123
     12 O2         20.2086    8.2316   -0.7277 O.3         1 MOL      -0.3836
     13 N3         22.6854   12.1197    2.0447 N.ar        1 MOL      -0.2714
     14 C9         15.2111    9.1340    8.4061 C.3         1 MOL      -0.0527
     15 C10        14.1161   10.7876    6.8369 C.3         1 MOL      -0.0527
     16 C11        14.0121    8.2923    6.3418 C.3         1 MOL      -0.0527
     17 N4         17.1891    8.4342    6.2679 N.4         1 MOL       0.2383
     18 S1         16.1325   11.7193    2.6917 S.o2        1 MOL       0.1859
     19 O1A        15.7082   13.3548    2.7780 O.2         1 MOL      -0.1218
     20 O2A        14.9185   10.8396    1.9138 O.2         1 MOL      -0.1218
     21 O5         17.5125   11.5189    1.7332 O.3         1 MOL      -0.2161
     22 C25        17.8011   12.2784    0.5576 C.3         1 MOL       0.1073
     23 C24        18.9932   11.6368   -0.1928 C.3         1 MOL       0.1161
     24 C23        18.7014   10.2083   -0.7329 C.3         1 MOL       0.1146
     25 O3         18.9030   10.1396   -2.1449 O.3         1 MOL      -0.3864
     26 C22        19.6883    9.3181    0.0436 C.3         1 MOL       0.1385
     27 C21        20.7935   10.3078    0.4626 C.3         1 MOL       0.2010
     28 O4         20.0929   11.5297    0.7222 O.3         1 MOL      -0.3367
     29 N9         21.5804    9.9612    1.6162 N.pl3       1 MOL      -0.1919
     30 N7         22.5430    8.8568    3.2980 N.2         1 MOL      -0.2958
     31 N6         24.5004   10.1906    5.1836 N.pl3       1 MOL      -0.3152
     32 H1         23.7538   13.7618    2.7059 H           1 MOL       0.0996
     33 H2         16.8291   10.4098    6.5720 H           1 MOL       0.1104
     34 H3         16.7596   11.7495    4.9005 H           1 MOL       0.2167
     35 H4         21.1954    7.9165    2.0128 H           1 MOL       0.1349
     36 H5         19.8861    7.4208   -0.2807 H           1 MOL       0.2101
     37 H6         14.2918    9.1220    8.9960 H           1 MOL       0.0238
     38 H7         15.8743    9.8865    8.8371 H           1 MOL       0.0238
     39 H8         15.6851    8.1574    8.5224 H           1 MOL       0.0238
     40 H9         13.8329   11.0305    5.8103 H           1 MOL       0.0238
     41 H10        14.7134   11.6160    7.2288 H           1 MOL       0.0238
     42 H11        13.1967   10.7227    7.4258 H           1 MOL       0.0238
     43 H12        14.5560    7.3447    6.3251 H           1 MOL       0.0238
     44 H13        13.6712    8.5129    5.3281 H           1 MOL       0.0238
     45 H14        13.1224    8.1617    6.9661 H           1 MOL       0.0238
     46 H15        18.0209    8.5681    5.6905 H           1 MOL       0.2015
     47 H16        16.7191    7.5699    5.9908 H           1 MOL       0.2015
     48 H17        17.4884    8.3664    7.2483 H           1 MOL       0.2015
     49 H18        18.0442   13.3018    0.8496 H           1 MOL       0.0611
     50 H19        16.9313   12.2992   -0.1057 H           1 MOL       0.0611
     51 H20        19.2869   12.3017   -1.0128 H           1 MOL       0.0648
     52 H21        17.6717    9.8894   -0.5378 H           1 MOL       0.0648
     53 H22        19.8217   10.4476   -2.2989 H           1 MOL       0.2100
     54 H23        19.1861    8.9326    0.9358 H           1 MOL       0.0676
     55 H24        21.4752   10.4706   -0.3814 H           1 MOL       0.0996
     56 H25        25.1095   10.6884    5.7519 H           1 MOL       0.1820
     57 H26        24.3269    9.2550    5.3687 H           1 MOL       0.1820
@<TRIPOS>BOND
     1     1     3   1
     2     9     1  am
     3     1    10   2
     4     2     8  ar
     5    13     2  ar
     6     3     7   1
     7     3    17   1
     8     4     5  ar
     9     4    13  ar
    10    29     4   1
    11     5     6  ar
    12    30     5   1
    13     6     8  ar
    14     6    31   1
    15     7    14   1
    16     7    15   1
    17     7    16   1
    18    18     9  am
    19    29    11   1
    20    11    30   2
    21    26    12   1
    22    18    19   2
    23    18    20   2
    24    21    18   1
    25    22    21   1
    26    23    22   1
    27    23    24   1
    28    28    23   1
    29    24    25   1
    30    26    24   1
    31    27    26   1
    32    27    28   1
    33    27    29   1
    34     2    32   1
    35     3    33   1
    36     9    34   1
    37    11    35   1
    38    12    36   1
    39    14    37   1
    40    14    38   1
    41    14    39   1
    42    15    40   1
    43    15    41   1
    44    15    42   1
    45    16    43   1
    46    16    44   1
    47    16    45   1
    48    17    46   1
    49    17    47   1
    50    17    48   1
    51    22    49   1
    52    22    50   1
    53    23    51   1
    54    24    52   1
    55    25    53   1
    56    26    54   1
    57    27    55   1
    58    31    56   1
    59    31    57   1
@<TRIPOS>SUBSTRUCTURE
     1  MOL      1

