@<TRIPOS>MOLECULE
3coy_ligand_068
    57    59
SMALL
GAST_HUCK
****
This file was generated by PARSER (from files_GN.cpp)

@<TRIPOS>ATOM
      1 C1         17.2247   10.6269   -1.3830 C.2         1 MOL       0.2465
      2 C2         16.8694   12.8337    4.0226 C.ar        1 MOL       0.0533
      3 C3         16.0987   10.1337   -2.1897 C.3         1 MOL       0.0714
      4 C4         17.5657   10.5893    3.9069 C.ar        1 MOL       0.1613
      5 C5         16.2471   10.1583    3.9882 C.ar        1 MOL       0.1045
      6 C6         15.2211   11.1146    4.0833 C.ar        1 MOL       0.1298
      7 C7         14.6446   10.1646   -1.5282 C.3         1 MOL       0.0226
      8 N1         15.5696   12.4291    4.1350 N.ar        1 MOL      -0.2698
      9 N2         17.1345   11.7589   -0.7008 N.am        1 MOL      -0.1294
     10 O1         18.2638    9.9764   -1.3618 O.2         1 MOL      -0.3891
     11 C8         17.5173    8.4317    3.8723 C.2         1 MOL       0.1123
     12 O2         20.4165    7.1449    2.9980 O.3         1 MOL      -0.3836
     13 N3         17.8685   11.9123    3.9361 N.ar        1 MOL      -0.2714
     14 C9         13.7852   11.3944   -2.0048 C.3         1 MOL      -0.0527
     15 C10        13.8610    8.8639   -1.9391 C.3         1 MOL      -0.0527
     16 C11        14.7158   10.1937    0.0409 C.3         1 MOL      -0.0527
     17 N4         16.1403   10.8154   -3.5004 N.4         1 MOL       0.2383
     18 S1         18.3327   12.4154    0.2904 S.o2        1 MOL       0.1859
     19 O1A        17.6029   13.3036    1.5326 O.2         1 MOL      -0.1218
     20 O2A        19.2526   13.5150   -0.5953 O.2         1 MOL      -0.1218
     21 O5         19.3413   11.2411    0.9755 O.3         1 MOL      -0.2161
     22 C25        20.7428   11.4630    1.1927 C.3         1 MOL       0.1073
     23 C24        21.3101   10.6298    2.3825 C.3         1 MOL       0.1161
     24 C23        21.5409    9.1324    2.0751 C.3         1 MOL       0.1146
     25 O3         22.6624    8.6431    2.8080 O.3         1 MOL      -0.3864
     26 C22        20.2345    8.4923    2.5546 C.3         1 MOL       0.1385
     27 C21        19.7758    9.4247    3.7040 C.3         1 MOL       0.2010
     28 O4         20.4038   10.7014    3.4942 O.3         1 MOL      -0.3367
     29 N9         18.3462    9.4989    3.8033 N.pl3       1 MOL      -0.1919
     30 N7         16.2345    8.8197    3.9628 N.2         1 MOL      -0.2958
     31 N6         13.9332   10.7405    4.1662 N.pl3       1 MOL      -0.3152
     32 H1         17.0962   13.8288    4.0738 H           1 MOL       0.0996
     33 H2         16.3224    9.0841   -2.4096 H           1 MOL       0.1104
     34 H3         16.3177   12.2740   -0.7879 H           1 MOL       0.2167
     35 H4         17.8063    7.4513    3.8408 H           1 MOL       0.1349
     36 H5         20.0992    6.5816    2.2571 H           1 MOL       0.2101
     37 H6         12.8218   11.4140   -1.4906 H           1 MOL       0.0238
     38 H7         13.5938   11.3416   -3.0757 H           1 MOL       0.0238
     39 H8         14.2926   12.3343   -1.7949 H           1 MOL       0.0238
     40 H9         14.3676    7.9718   -1.5561 H           1 MOL       0.0238
     41 H10        13.7959    8.7822   -3.0272 H           1 MOL       0.0238
     42 H11        12.8452    8.8748   -1.5358 H           1 MOL       0.0238
     43 H12        15.1221   11.1556    0.3794 H           1 MOL       0.0238
     44 H13        15.3595    9.3864    0.4152 H           1 MOL       0.0238
     45 H14        13.7147   10.0731    0.4786 H           1 MOL       0.0238
     46 H15        17.0663   10.7329   -3.9185 H           1 MOL       0.2015
     47 H16        15.9194   11.8050   -3.3754 H           1 MOL       0.2015
     48 H17        15.4508   10.3901   -4.1139 H           1 MOL       0.2015
     49 H18        20.9129   12.5315    1.4113 H           1 MOL       0.0611
     50 H19        21.2957   11.2153    0.2761 H           1 MOL       0.0611
     51 H20        22.2574   11.0951    2.6759 H           1 MOL       0.0648
     52 H21        21.7140    8.9514    1.0113 H           1 MOL       0.0648
     53 H22        22.4608    8.8096    3.7521 H           1 MOL       0.2100
     54 H23        19.5040    8.4952    1.7366 H           1 MOL       0.0676
     55 H24        20.1777    9.0443    4.6473 H           1 MOL       0.0996
     56 H25        13.2262   11.3964    4.2505 H           1 MOL       0.1820
     57 H26        13.7066    9.7985    4.1623 H           1 MOL       0.1820
@<TRIPOS>BOND
     1     1     3   1
     2     9     1  am
     3     1    10   2
     4     2     8  ar
     5    13     2  ar
     6     3     7   1
     7     3    17   1
     8     4     5  ar
     9     4    13  ar
    10    29     4   1
    11     5     6  ar
    12    30     5   1
    13     6     8  ar
    14     6    31   1
    15     7    14   1
    16     7    15   1
    17     7    16   1
    18    18     9  am
    19    29    11   1
    20    11    30   2
    21    26    12   1
    22    18    19   2
    23    18    20   2
    24    21    18   1
    25    22    21   1
    26    23    22   1
    27    23    24   1
    28    28    23   1
    29    24    25   1
    30    26    24   1
    31    27    26   1
    32    27    28   1
    33    27    29   1
    34     2    32   1
    35     3    33   1
    36     9    34   1
    37    11    35   1
    38    12    36   1
    39    14    37   1
    40    14    38   1
    41    14    39   1
    42    15    40   1
    43    15    41   1
    44    15    42   1
    45    16    43   1
    46    16    44   1
    47    16    45   1
    48    17    46   1
    49    17    47   1
    50    17    48   1
    51    22    49   1
    52    22    50   1
    53    23    51   1
    54    24    52   1
    55    25    53   1
    56    26    54   1
    57    27    55   1
    58    31    56   1
    59    31    57   1
@<TRIPOS>SUBSTRUCTURE
     1  MOL      1

