@<TRIPOS>MOLECULE
3coy_ligand_034
    57    59
SMALL
GAST_HUCK
****
This file was generated by PARSER (from files_GN.cpp)

@<TRIPOS>ATOM
      1 C1         15.6791   10.6182   -0.8169 C.2         1 MOL       0.2465
      2 C2         23.4380   12.5093    3.1757 C.ar        1 MOL       0.0533
      3 C3         15.3092    9.7915   -1.9706 C.3         1 MOL       0.0714
      4 C4         22.2876   10.6443    2.3062 C.ar        1 MOL       0.1613
      5 C5         22.6241    9.8970    3.4321 C.ar        1 MOL       0.1045
      6 C6         23.3882   10.4970    4.4485 C.ar        1 MOL       0.1298
      7 C7         13.7554    9.6051   -2.2073 C.3         1 MOL       0.0226
      8 N1         23.7701   11.7926    4.2844 N.ar        1 MOL      -0.2698
      9 N2         16.2114   10.0546    0.2607 N.am        1 MOL      -0.1294
     10 O1         15.5064   11.8289   -0.8673 O.2         1 MOL      -0.3891
     11 C8         21.4807    8.6558    2.1059 C.2         1 MOL       0.1123
     12 O2         20.1053    8.1947   -0.9021 O.3         1 MOL      -0.3836
     13 N3         22.6996   11.9344    2.1892 N.ar        1 MOL      -0.2714
     14 C9         13.0313    9.2370   -0.8689 C.3         1 MOL      -0.0527
     15 C10        13.0857   10.8863   -2.7981 C.3         1 MOL      -0.0527
     16 C11        13.5133    8.4324   -3.2191 C.3         1 MOL      -0.0527
     17 N4         16.0046   10.3286   -3.1589 N.4         1 MOL       0.2383
     18 S1         16.7453   10.8571    1.6451 S.o2        1 MOL       0.1859
     19 O1A        17.1238    9.7575    2.8715 O.2         1 MOL      -0.1218
     20 O2A        15.5506   11.9354    2.1699 O.2         1 MOL      -0.1218
     21 O5         18.1445   11.7505    1.2945 O.3         1 MOL      -0.2161
     22 C25        18.4373   12.4962    0.1036 C.3         1 MOL       0.1073
     23 C24        19.5703   11.8167   -0.7104 C.3         1 MOL       0.1161
     24 C23        19.2003   10.4396   -1.3115 C.3         1 MOL       0.1146
     25 O3         19.7561   10.2772   -2.6168 O.3         1 MOL      -0.3864
     26 C22        19.8142    9.4577   -0.3072 C.3         1 MOL       0.1385
     27 C21        21.0617   10.2212    0.1887 C.3         1 MOL       0.2010
     28 O4         20.7022   11.6163    0.1471 O.3         1 MOL      -0.3367
     29 N9         21.5581    9.8584    1.4906 N.pl3       1 MOL      -0.1919
     30 N7         22.1158    8.6652    3.2907 N.2         1 MOL      -0.2958
     31 N6         23.7414    9.8227    5.5536 N.pl3       1 MOL      -0.3152
     32 H1         23.7396   13.4784    3.0839 H           1 MOL       0.0996
     33 H2         15.7326    8.7930   -1.8208 H           1 MOL       0.1104
     34 H3         16.3344    9.0934    0.2454 H           1 MOL       0.2167
     35 H4         21.0121    7.8266    1.7366 H           1 MOL       0.1349
     36 H5         19.7489    7.5221   -0.2805 H           1 MOL       0.2101
     37 H6         11.9741    9.0253   -1.0444 H           1 MOL       0.0238
     38 H7         13.0864   10.0573   -0.1525 H           1 MOL       0.0238
     39 H8         13.4909    8.3554   -0.4170 H           1 MOL       0.0238
     40 H9         13.5420   11.1526   -3.7514 H           1 MOL       0.0238
     41 H10        13.1753   11.7351   -2.1202 H           1 MOL       0.0238
     42 H11        12.0222   10.7146   -2.9742 H           1 MOL       0.0238
     43 H12        13.9177    7.4987   -2.8273 H           1 MOL       0.0238
     44 H13        13.9879    8.6324   -4.1817 H           1 MOL       0.0238
     45 H14        12.4472    8.2865   -3.4025 H           1 MOL       0.0238
     46 H15        17.0143   10.2968   -3.0168 H           1 MOL       0.2015
     47 H16        15.7202   11.2990   -3.3179 H           1 MOL       0.2015
     48 H17        15.7729    9.7719   -3.9801 H           1 MOL       0.2015
     49 H18        18.7608   13.4916    0.4116 H           1 MOL       0.0611
     50 H19        17.5503   12.6163   -0.5265 H           1 MOL       0.0611
     51 H20        19.8572   12.4994   -1.5105 H           1 MOL       0.0648
     52 H21        18.1216   10.2865   -1.3830 H           1 MOL       0.0648
     53 H22        19.1681   10.7929   -3.2191 H           1 MOL       0.2100
     54 H23        19.1071    9.3057    0.5186 H           1 MOL       0.0676
     55 H24        21.8754   10.0753   -0.5304 H           1 MOL       0.0996
     56 H25        24.2697   10.2578    6.2393 H           1 MOL       0.1820
     57 H26        23.4693    8.8979    5.6666 H           1 MOL       0.1820
@<TRIPOS>BOND
     1     1     3   1
     2     9     1  am
     3     1    10   2
     4     2     8  ar
     5    13     2  ar
     6     3     7   1
     7     3    17   1
     8     4     5  ar
     9     4    13  ar
    10    29     4   1
    11     5     6  ar
    12    30     5   1
    13     6     8  ar
    14     6    31   1
    15     7    14   1
    16     7    15   1
    17     7    16   1
    18    18     9  am
    19    29    11   1
    20    11    30   2
    21    26    12   1
    22    18    19   2
    23    18    20   2
    24    21    18   1
    25    22    21   1
    26    23    22   1
    27    23    24   1
    28    28    23   1
    29    24    25   1
    30    26    24   1
    31    27    26   1
    32    27    28   1
    33    27    29   1
    34     2    32   1
    35     3    33   1
    36     9    34   1
    37    11    35   1
    38    12    36   1
    39    14    37   1
    40    14    38   1
    41    14    39   1
    42    15    40   1
    43    15    41   1
    44    15    42   1
    45    16    43   1
    46    16    44   1
    47    16    45   1
    48    17    46   1
    49    17    47   1
    50    17    48   1
    51    22    49   1
    52    22    50   1
    53    23    51   1
    54    24    52   1
    55    25    53   1
    56    26    54   1
    57    27    55   1
    58    31    56   1
    59    31    57   1
@<TRIPOS>SUBSTRUCTURE
     1  MOL      1

