@<TRIPOS>MOLECULE
3coy_ligand_019
    57    59
SMALL
GAST_HUCK
****
This file was generated by PARSER (from files_GN.cpp)

@<TRIPOS>ATOM
      1 C1         14.3544   10.1014    0.6628 C.2         1 MOL       0.2465
      2 C2         24.0384   10.4823    5.7536 C.ar        1 MOL       0.0533
      3 C3         13.8585    9.2518   -0.4140 C.3         1 MOL       0.0714
      4 C4         22.0230   10.4864    4.5292 C.ar        1 MOL       0.1613
      5 C5         21.4081    9.7517    5.5393 C.ar        1 MOL       0.1045
      6 C6         22.1298    9.4257    6.7001 C.ar        1 MOL       0.1298
      7 C7         14.3225    9.6986   -1.8631 C.3         1 MOL       0.0226
      8 N1         23.4398    9.7880    6.7623 N.ar        1 MOL      -0.2698
      9 N2         15.6048    9.9642    1.0691 N.am        1 MOL      -0.1294
     10 O1         13.6071   10.9502    1.1364 O.2         1 MOL      -0.3891
     11 C8         19.9922   10.0395    3.9532 C.2         1 MOL       0.1123
     12 O2         22.2344    9.9294    0.6521 O.3         1 MOL      -0.3836
     13 N3         23.3234   10.8460    4.6478 N.ar        1 MOL      -0.2714
     14 C9         13.8887   11.1766   -2.1495 C.3         1 MOL      -0.0527
     15 C10        15.8743    9.5965   -2.0545 C.3         1 MOL      -0.0527
     16 C11        13.6264    8.7814   -2.9187 C.3         1 MOL      -0.0527
     17 N4         14.1718    7.8430   -0.0868 N.4         1 MOL       0.2383
     18 S1         16.3820   10.9191    2.2180 S.o2        1 MOL       0.1859
     19 O1A        16.5540    9.9675    3.6085 O.2         1 MOL      -0.1218
     20 O2A        15.5155   12.3345    2.5519 O.2         1 MOL      -0.1218
     21 O5         17.9448   11.2532    1.6419 O.3         1 MOL      -0.2161
     22 C25        18.2845   12.4615    0.9461 C.3         1 MOL       0.1073
     23 C24        19.8177   12.6884    0.9407 C.3         1 MOL       0.1161
     24 C23        20.6490   11.7315    0.0603 C.3         1 MOL       0.1146
     25 O3         21.7814   12.4462   -0.4440 O.3         1 MOL      -0.3864
     26 C22        21.0677   10.6375    1.0538 C.3         1 MOL       0.1385
     27 C21        21.2692   11.4489    2.3515 C.3         1 MOL       0.2010
     28 O4         20.3153   12.5393    2.2930 O.3         1 MOL      -0.3367
     29 N9         21.1163   10.6872    3.5602 N.pl3       1 MOL      -0.1919
     30 N7         20.1551    9.4730    5.1667 N.2         1 MOL      -0.2958
     31 N6         21.5556    8.7956    7.7371 N.pl3       1 MOL      -0.3152
     32 H1         25.0335   10.7277    5.8335 H           1 MOL       0.0996
     33 H2         12.7561    9.3017   -0.3986 H           1 MOL       0.1104
     34 H3         16.1323    9.2554    0.6704 H           1 MOL       0.2167
     35 H4         19.1172    9.9702    3.4101 H           1 MOL       0.1349
     36 H5         21.9927    9.5140   -0.2014 H           1 MOL       0.2101
     37 H6         14.1331   11.4656   -3.1749 H           1 MOL       0.0238
     38 H7         14.3973   11.8768   -1.4817 H           1 MOL       0.0238
     39 H8         12.8114   11.3015   -2.0104 H           1 MOL       0.0238
     40 H9         16.2359    8.5959   -1.8139 H           1 MOL       0.0238
     41 H10        16.4029   10.3100   -1.4201 H           1 MOL       0.0238
     42 H11        16.1539    9.8159   -3.0864 H           1 MOL       0.0238
     43 H12        12.5397    8.8363   -2.8212 H           1 MOL       0.0238
     44 H13        13.9242    7.7402   -2.7925 H           1 MOL       0.0238
     45 H14        13.8887    9.0821   -3.9344 H           1 MOL       0.0238
     46 H15        13.8611    7.6378    0.8664 H           1 MOL       0.2015
     47 H16        15.1750    7.6807   -0.1501 H           1 MOL       0.2015
     48 H17        13.6912    7.2171   -0.7317 H           1 MOL       0.2015
     49 H18        17.8197   13.2992    1.4654 H           1 MOL       0.0611
     50 H19        17.8915   12.4207   -0.0726 H           1 MOL       0.0611
     51 H20        19.9821   13.7137    0.6239 H           1 MOL       0.0648
     52 H21        20.0916   11.3187   -0.7811 H           1 MOL       0.0648
     53 H22        22.4619   11.7610   -0.6443 H           1 MOL       0.2100
     54 H23        20.2512    9.9256    1.1575 H           1 MOL       0.0676
     55 H24        22.2680   11.9068    2.3224 H           1 MOL       0.0996
     56 H25        22.0795    8.5863    8.5247 H           1 MOL       0.1820
     57 H26        20.6031    8.6106    7.7364 H           1 MOL       0.1820
@<TRIPOS>BOND
     1     1     3   1
     2     9     1  am
     3     1    10   2
     4     2     8  ar
     5    13     2  ar
     6     3     7   1
     7     3    17   1
     8     4     5  ar
     9     4    13  ar
    10    29     4   1
    11     5     6  ar
    12    30     5   1
    13     6     8  ar
    14     6    31   1
    15     7    14   1
    16     7    15   1
    17     7    16   1
    18    18     9  am
    19    29    11   1
    20    11    30   2
    21    26    12   1
    22    18    19   2
    23    18    20   2
    24    21    18   1
    25    22    21   1
    26    23    22   1
    27    23    24   1
    28    28    23   1
    29    24    25   1
    30    26    24   1
    31    27    26   1
    32    27    28   1
    33    27    29   1
    34     2    32   1
    35     3    33   1
    36     9    34   1
    37    11    35   1
    38    12    36   1
    39    14    37   1
    40    14    38   1
    41    14    39   1
    42    15    40   1
    43    15    41   1
    44    15    42   1
    45    16    43   1
    46    16    44   1
    47    16    45   1
    48    17    46   1
    49    17    47   1
    50    17    48   1
    51    22    49   1
    52    22    50   1
    53    23    51   1
    54    24    52   1
    55    25    53   1
    56    26    54   1
    57    27    55   1
    58    31    56   1
    59    31    57   1
@<TRIPOS>SUBSTRUCTURE
     1  MOL      1

