@<TRIPOS>MOLECULE
3coy_ligand_073
    57    59
SMALL
GAST_HUCK
****
This file was generated by PARSER (from files_GN.cpp)

@<TRIPOS>ATOM
      1 C1         14.4162   10.4963    0.7529 C.2         1 MOL       0.2465
      2 C2         22.3163   10.8083    5.6209 C.ar        1 MOL       0.0533
      3 C3         13.9027    9.6027   -0.2894 C.3         1 MOL       0.0714
      4 C4         22.0820   11.5479    3.3953 C.ar        1 MOL       0.1613
      5 C5         23.3198   12.1892    3.4673 C.ar        1 MOL       0.1045
      6 C6         24.0591   12.1132    4.6600 C.ar        1 MOL       0.1298
      7 C7         14.2325    9.9261   -1.8116 C.3         1 MOL       0.0226
      8 N1         23.5310   11.4190    5.7051 N.ar        1 MOL      -0.2698
      9 N2         13.8546   10.4849    1.9555 N.am        1 MOL      -0.1294
     10 O1         15.3932   11.2088    0.5395 O.2         1 MOL      -0.3891
     11 C8         22.4997   12.5360    1.5170 C.2         1 MOL       0.1123
     12 O2         20.4247    8.9087    1.2237 O.3         1 MOL      -0.3836
     13 N3         21.5933   10.8725    4.4679 N.ar        1 MOL      -0.2714
     14 C9         13.7199   11.3581   -2.1933 C.3         1 MOL      -0.0527
     15 C10        15.7585    9.8338   -2.1488 C.3         1 MOL      -0.0527
     16 C11        13.4804    8.9079   -2.7391 C.3         1 MOL      -0.0527
     17 N4         14.3032    8.2276    0.0895 N.4         1 MOL       0.2383
     18 S1         14.4358   11.3361    3.2910 S.o2        1 MOL       0.1859
     19 O1A        13.7213   10.6845    4.6762 O.2         1 MOL      -0.1218
     20 O2A        14.1107   12.9887    3.1302 O.2         1 MOL      -0.1218
     21 O5         16.1098   11.0748    3.3420 O.3         1 MOL      -0.2161
     22 C25        17.1716   12.0093    3.1194 C.3         1 MOL       0.1073
     23 C24        18.0268   11.6365    1.8766 C.3         1 MOL       0.1161
     24 C23        18.2876   10.1173    1.6370 C.3         1 MOL       0.1146
     25 O3         18.0234    9.7562    0.2801 O.3         1 MOL      -0.3864
     26 C22        19.7820    9.9627    1.9481 C.3         1 MOL       0.1385
     27 C21        20.3253   11.3649    1.5861 C.3         1 MOL       0.2010
     28 O4         19.3083   12.2774    2.0224 O.3         1 MOL      -0.3367
     29 N9         21.5904   11.7572    2.1562 N.pl3       1 MOL      -0.1919
     30 N7         23.5600   12.8018    2.2992 N.2         1 MOL      -0.2958
     31 N6         25.2570   12.7040    4.7773 N.pl3       1 MOL      -0.3152
     32 H1         21.9473   10.2992    6.4254 H           1 MOL       0.0996
     33 H2         12.8105    9.6329   -0.1961 H           1 MOL       0.1104
     34 H3         13.1028    9.8852    2.1059 H           1 MOL       0.2167
     35 H4         22.4032   12.9002    0.5657 H           1 MOL       0.1349
     36 H5         19.8291    8.1270    1.3131 H           1 MOL       0.2101
     37 H6         13.8801   11.5511   -3.2559 H           1 MOL       0.0238
     38 H7         14.2457   12.1397   -1.6431 H           1 MOL       0.0238
     39 H8         12.6531   11.4572   -1.9800 H           1 MOL       0.0238
     40 H9         16.1797    8.8887   -1.8027 H           1 MOL       0.0238
     41 H10        16.3169   10.6488   -1.6850 H           1 MOL       0.0238
     42 H11        15.9223    9.8928   -3.2296 H           1 MOL       0.0238
     43 H12        12.4081    8.9137   -2.5341 H           1 MOL       0.0238
     44 H13        13.8539    7.8922   -2.5934 H           1 MOL       0.0238
     45 H14        13.6215    9.1600   -3.7930 H           1 MOL       0.0238
     46 H15        14.0130    8.0361    1.0516 H           1 MOL       0.2015
     47 H16        15.3178    8.1139    0.0264 H           1 MOL       0.2015
     48 H17        13.8469    7.5547   -0.5258 H           1 MOL       0.2015
     49 H18        17.7943   12.0011    4.0179 H           1 MOL       0.0611
     50 H19        16.7857   13.0275    2.9949 H           1 MOL       0.0611
     51 H20        17.5406   12.0637    0.9936 H           1 MOL       0.0648
     52 H21        17.7005    9.4586    2.2820 H           1 MOL       0.0648
     53 H22        17.0474    9.6997    0.2298 H           1 MOL       0.2100
     54 H23        19.8829    9.7581    3.0154 H           1 MOL       0.0676
     55 H24        20.3816   11.4320    0.4884 H           1 MOL       0.0996
     56 H25        25.7550   12.6371    5.6065 H           1 MOL       0.1820
     57 H26        25.6306   13.1933    4.0258 H           1 MOL       0.1820
@<TRIPOS>BOND
     1     1     3   1
     2     9     1  am
     3     1    10   2
     4     2     8  ar
     5    13     2  ar
     6     3     7   1
     7     3    17   1
     8     4     5  ar
     9     4    13  ar
    10    29     4   1
    11     5     6  ar
    12    30     5   1
    13     6     8  ar
    14     6    31   1
    15     7    14   1
    16     7    15   1
    17     7    16   1
    18    18     9  am
    19    29    11   1
    20    11    30   2
    21    26    12   1
    22    18    19   2
    23    18    20   2
    24    21    18   1
    25    22    21   1
    26    23    22   1
    27    23    24   1
    28    28    23   1
    29    24    25   1
    30    26    24   1
    31    27    26   1
    32    27    28   1
    33    27    29   1
    34     2    32   1
    35     3    33   1
    36     9    34   1
    37    11    35   1
    38    12    36   1
    39    14    37   1
    40    14    38   1
    41    14    39   1
    42    15    40   1
    43    15    41   1
    44    15    42   1
    45    16    43   1
    46    16    44   1
    47    16    45   1
    48    17    46   1
    49    17    47   1
    50    17    48   1
    51    22    49   1
    52    22    50   1
    53    23    51   1
    54    24    52   1
    55    25    53   1
    56    26    54   1
    57    27    55   1
    58    31    56   1
    59    31    57   1
@<TRIPOS>SUBSTRUCTURE
     1  MOL      1

