@<TRIPOS>MOLECULE
3coy_ligand_012
    57    59
SMALL
GAST_HUCK
****
This file was generated by PARSER (from files_GN.cpp)

@<TRIPOS>ATOM
      1 C1         17.5337   10.9338    0.0261 C.2         1 MOL       0.2465
      2 C2         24.7038    8.6276    4.3756 C.ar        1 MOL       0.0533
      3 C3         17.4184   10.7497   -1.4260 C.3         1 MOL       0.0714
      4 C4         24.4855   10.8653    3.6846 C.ar        1 MOL       0.1613
      5 C5         25.8406   11.0891    3.9331 C.ar        1 MOL       0.1045
      6 C6         26.6309   10.0304    4.3998 C.ar        1 MOL       0.1298
      7 C7         15.9331   10.7672   -1.9769 C.3         1 MOL       0.0226
      8 N1         26.0316    8.8249    4.6160 N.ar        1 MOL      -0.2698
      9 N2         17.3951    9.8954    0.8400 N.am        1 MOL      -0.1294
     10 O1         17.8137   12.0429    0.4834 O.2         1 MOL      -0.3891
     11 C8         24.9768   12.9226    3.2237 C.2         1 MOL       0.1123
     12 O2         22.6027   12.3886    0.3607 O.3         1 MOL      -0.3836
     13 N3         23.9302    9.6446    3.9091 N.ar        1 MOL      -0.2714
     14 C9         15.2017    9.4338   -1.5924 C.3         1 MOL      -0.0527
     15 C10        15.1160   11.9715   -1.3954 C.3         1 MOL      -0.0527
     16 C11        15.9120   10.8802   -3.5388 C.3         1 MOL      -0.0527
     17 N4         18.3071   11.7099   -2.1191 N.4         1 MOL       0.2383
     18 S1         17.5461    9.8865    2.5207 S.o2        1 MOL       0.1859
     19 O1A        16.4280    8.7609    3.1148 O.2         1 MOL      -0.1218
     20 O2A        17.3182   11.4139    3.2210 O.2         1 MOL      -0.1218
     21 O5         19.0898    9.2790    2.8545 O.3         1 MOL      -0.2161
     22 C25        20.1413    9.9041    3.5985 C.3         1 MOL       0.1073
     23 C24        20.4747   11.3632    3.1780 C.3         1 MOL       0.1161
     24 C23        20.6667   11.5693    1.6553 C.3         1 MOL       0.1146
     25 O3         20.0371   12.7992    1.2620 O.3         1 MOL      -0.3864
     26 C22        22.1920   11.6321    1.5053 C.3         1 MOL       0.1385
     27 C21        22.6057   12.2753    2.8414 C.3         1 MOL       0.2010
     28 O4         21.6966   11.7582    3.8272 O.3         1 MOL      -0.3367
     29 N9         23.9643   12.0193    3.2264 N.pl3       1 MOL      -0.1919
     30 N7         26.1284   12.3655    3.6383 N.2         1 MOL      -0.2958
     31 N6         27.9448   10.1993    4.6256 N.pl3       1 MOL      -0.3152
     32 H1         24.2842    7.7143    4.5443 H           1 MOL       0.0996
     33 H2         17.8490    9.7742   -1.6742 H           1 MOL       0.1104
     34 H3         17.2242    9.0356    0.4300 H           1 MOL       0.2167
     35 H4         24.8955   13.9014    2.9274 H           1 MOL       0.1349
     36 H5         22.2323   11.9130   -0.4107 H           1 MOL       0.2101
     37 H6         14.1940    9.4007   -2.0180 H           1 MOL       0.0238
     38 H7         15.1050    9.3293   -0.5076 H           1 MOL       0.0238
     39 H8         15.7571    8.5704   -1.9685 H           1 MOL       0.0238
     40 H9         15.6298   12.9179   -1.5790 H           1 MOL       0.0238
     41 H10        14.9814   11.8585   -0.3167 H           1 MOL       0.0238
     42 H11        14.1232   12.0288   -1.8530 H           1 MOL       0.0238
     43 H12        16.5225   10.0950   -3.9866 H           1 MOL       0.0238
     44 H13        16.2976   11.8458   -3.8674 H           1 MOL       0.0238
     45 H14        14.8942   10.7820   -3.9222 H           1 MOL       0.0238
     46 H15        19.2490   11.6526   -1.7220 H           1 MOL       0.2015
     47 H16        17.9549   12.6659   -2.0161 H           1 MOL       0.2015
     48 H17        18.3574   11.4788   -3.1157 H           1 MOL       0.2015
     49 H18        21.0285    9.2813    3.4626 H           1 MOL       0.0611
     50 H19        19.8739    9.8828    4.6589 H           1 MOL       0.0611
     51 H20        19.6825   12.0162    3.5452 H           1 MOL       0.0648
     52 H21        20.2569   10.7522    1.0499 H           1 MOL       0.0648
     53 H22        19.5652   12.5921    0.4249 H           1 MOL       0.2100
     54 H23        22.5905   10.6147    1.4303 H           1 MOL       0.0676
     55 H24        22.4372   13.3563    2.7644 H           1 MOL       0.0996
     56 H25        28.4901    9.4612    4.9375 H           1 MOL       0.1820
     57 H26        28.3510   11.0644    4.4656 H           1 MOL       0.1820
@<TRIPOS>BOND
     1     1     3   1
     2     9     1  am
     3     1    10   2
     4     2     8  ar
     5    13     2  ar
     6     3     7   1
     7     3    17   1
     8     4     5  ar
     9     4    13  ar
    10    29     4   1
    11     5     6  ar
    12    30     5   1
    13     6     8  ar
    14     6    31   1
    15     7    14   1
    16     7    15   1
    17     7    16   1
    18    18     9  am
    19    29    11   1
    20    11    30   2
    21    26    12   1
    22    18    19   2
    23    18    20   2
    24    21    18   1
    25    22    21   1
    26    23    22   1
    27    23    24   1
    28    28    23   1
    29    24    25   1
    30    26    24   1
    31    27    26   1
    32    27    28   1
    33    27    29   1
    34     2    32   1
    35     3    33   1
    36     9    34   1
    37    11    35   1
    38    12    36   1
    39    14    37   1
    40    14    38   1
    41    14    39   1
    42    15    40   1
    43    15    41   1
    44    15    42   1
    45    16    43   1
    46    16    44   1
    47    16    45   1
    48    17    46   1
    49    17    47   1
    50    17    48   1
    51    22    49   1
    52    22    50   1
    53    23    51   1
    54    24    52   1
    55    25    53   1
    56    26    54   1
    57    27    55   1
    58    31    56   1
    59    31    57   1
@<TRIPOS>SUBSTRUCTURE
     1  MOL      1

