@<TRIPOS>MOLECULE
3coy_ligand_085
    57    59
SMALL
GAST_HUCK
****
This file was generated by PARSER (from files_GN.cpp)

@<TRIPOS>ATOM
      1 C1         16.9194   10.9060    0.2660 C.2         1 MOL       0.2465
      2 C2         26.7671   11.0663    4.2184 C.ar        1 MOL       0.0533
      3 C3         15.4791   10.7111    0.0859 C.3         1 MOL       0.0714
      4 C4         24.4882   11.1667    3.6395 C.ar        1 MOL       0.1613
      5 C5         24.6346   12.4916    3.2315 C.ar        1 MOL       0.1045
      6 C6         25.8956   13.1006    3.3352 C.ar        1 MOL       0.1298
      7 C7         14.8669   10.8197   -1.3779 C.3         1 MOL       0.0226
      8 N1         26.9272   12.3624    3.8290 N.ar        1 MOL      -0.2698
      9 N2         17.8127   10.4125   -0.5738 N.am        1 MOL      -0.1294
     10 O1         17.2931   11.5410    1.2454 O.2         1 MOL      -0.3891
     11 C8         22.5920   11.9041    2.9231 C.2         1 MOL       0.1123
     12 O2         21.6680    8.5093    5.7699 O.3         1 MOL      -0.3836
     13 N3         25.5474   10.4727    4.1269 N.ar        1 MOL      -0.2714
     14 C9         15.0319    9.4996   -2.2100 C.3         1 MOL      -0.0527
     15 C10        13.3277   11.1153   -1.2796 C.3         1 MOL      -0.0527
     16 C11        15.5142   12.0015   -2.1762 C.3         1 MOL      -0.0527
     17 N4         15.1279    9.4517    0.7669 N.4         1 MOL       0.2383
     18 S1         19.4781   10.6547   -0.4952 S.o2        1 MOL       0.1859
     19 O1A        19.8592   12.2817   -0.7884 O.2         1 MOL      -0.1218
     20 O2A        20.2004    9.6458   -1.6428 O.2         1 MOL      -0.1218
     21 O5         19.9940   10.2420    1.0597 O.3         1 MOL      -0.2161
     22 C25        19.7474    8.9384    1.5986 C.3         1 MOL       0.1073
     23 C24        20.6113    8.7120    2.8590 C.3         1 MOL       0.1161
     24 C23        20.2153    9.5578    4.0885 C.3         1 MOL       0.1146
     25 O3         19.1479    8.9624    4.8247 O.3         1 MOL      -0.3864
     26 C22        21.5413    9.6111    4.8639 C.3         1 MOL       0.1385
     27 C21        22.6104    9.5424    3.7431 C.3         1 MOL       0.2010
     28 O4         21.9792    9.0327    2.5604 O.3         1 MOL      -0.3367
     29 N9         23.2048   10.8201    3.4482 N.pl3       1 MOL      -0.1919
     30 N7         23.4506   12.9313    2.7857 N.2         1 MOL      -0.2958
     31 N6         26.0947   14.3781    2.9706 N.pl3       1 MOL      -0.3152
     32 H1         27.5614   10.5421    4.5821 H           1 MOL       0.0996
     33 H2         14.9936   11.4870    0.6891 H           1 MOL       0.1104
     34 H3         17.4949    9.9185   -1.3309 H           1 MOL       0.2167
     35 H4         21.6094   11.9575    2.6528 H           1 MOL       0.1349
     36 H5         21.5869    7.6992    5.2202 H           1 MOL       0.2101
     37 H6         14.5384    9.5890   -3.1783 H           1 MOL       0.0238
     38 H7         14.5993    8.6418   -1.6903 H           1 MOL       0.0238
     39 H8         16.0704    9.2695   -2.4164 H           1 MOL       0.0238
     40 H9         13.1444   12.0535   -0.7491 H           1 MOL       0.0238
     41 H10        12.8081   10.3159   -0.7474 H           1 MOL       0.0238
     42 H11        12.8804   11.2069   -2.2727 H           1 MOL       0.0238
     43 H12        16.5711   11.8279   -2.3731 H           1 MOL       0.0238
     44 H13        15.4262   12.9340   -1.6175 H           1 MOL       0.0238
     45 H14        15.0356   12.1298   -3.1453 H           1 MOL       0.0238
     46 H15        15.3762    9.5114    1.7570 H           1 MOL       0.2015
     47 H16        15.6425    8.6769    0.3427 H           1 MOL       0.2015
     48 H17        14.1227    9.2836    0.6897 H           1 MOL       0.2015
     49 H18        20.0302    8.1919    0.8545 H           1 MOL       0.0611
     50 H19        18.6879    8.8158    1.8373 H           1 MOL       0.0611
     51 H20        20.5659    7.6449    3.1185 H           1 MOL       0.0648
     52 H21        19.9189   10.5676    3.7901 H           1 MOL       0.0648
     53 H22        19.0383    9.5266    5.6177 H           1 MOL       0.2100
     54 H23        21.6128   10.5322    5.4487 H           1 MOL       0.0676
     55 H24        23.3868    8.8263    4.0258 H           1 MOL       0.0996
     56 H25        26.9754   14.7735    3.0608 H           1 MOL       0.1820
     57 H26        25.3600   14.9094    2.6251 H           1 MOL       0.1820
@<TRIPOS>BOND
     1     1     3   1
     2     9     1  am
     3     1    10   2
     4     2     8  ar
     5    13     2  ar
     6     3     7   1
     7     3    17   1
     8     4     5  ar
     9     4    13  ar
    10    29     4   1
    11     5     6  ar
    12    30     5   1
    13     6     8  ar
    14     6    31   1
    15     7    14   1
    16     7    15   1
    17     7    16   1
    18    18     9  am
    19    29    11   1
    20    11    30   2
    21    26    12   1
    22    18    19   2
    23    18    20   2
    24    21    18   1
    25    22    21   1
    26    23    22   1
    27    23    24   1
    28    28    23   1
    29    24    25   1
    30    26    24   1
    31    27    26   1
    32    27    28   1
    33    27    29   1
    34     2    32   1
    35     3    33   1
    36     9    34   1
    37    11    35   1
    38    12    36   1
    39    14    37   1
    40    14    38   1
    41    14    39   1
    42    15    40   1
    43    15    41   1
    44    15    42   1
    45    16    43   1
    46    16    44   1
    47    16    45   1
    48    17    46   1
    49    17    47   1
    50    17    48   1
    51    22    49   1
    52    22    50   1
    53    23    51   1
    54    24    52   1
    55    25    53   1
    56    26    54   1
    57    27    55   1
    58    31    56   1
    59    31    57   1
@<TRIPOS>SUBSTRUCTURE
     1  MOL      1

