@<TRIPOS>MOLECULE
3cyx_ligand_001
   100   104
SMALL
GAST_HUCK
****
This file was generated by PARSER (from files_GN.cpp)

@<TRIPOS>ATOM
      1 O1          9.5237   16.4203   15.2303 O.2         1 ROC      -0.3762
      2 C1         10.7414   16.4863   15.1169 C.2         1 ROC       0.2293
      3 N1         12.6799   16.2167   13.7364 N.ar        1 ROC      -0.2737
      4 C2         11.3208   16.2685   13.8650 C.ar        1 ROC       0.1219
      5 C3         10.5482   16.0745   12.6950 C.ar        1 ROC      -0.0136
      6 C4         11.1771   15.8427   11.4543 C.ar        1 ROC      -0.0314
      7 C5         12.5801   15.7948   11.3716 C.ar        1 ROC       0.0097
      8 C6         13.2560   15.5627   10.1532 C.ar        1 ROC      -0.0444
      9 C7         14.6656   15.5269   10.1184 C.ar        1 ROC      -0.0546
     10 C8         15.4023   15.7246   11.2981 C.ar        1 ROC      -0.0545
     11 C9R        14.7391   15.9582   12.5152 C.ar        1 ROC      -0.0370
     12 C10        13.3342   15.9925   12.5642 C.ar        1 ROC       0.0527
     13 N2         11.4794   16.7648   16.1923 N.am        1 ROC      -0.2600
     14 C11        11.0255   16.9178   17.5516 C.3         1 ROC       0.1473
     15 C12        11.4295   18.2203   18.0840 C.2         1 ROC       0.2045
     16 O2         10.5450   18.9444   18.5299 O.2         1 ROC      -0.3943
     17 C13        11.5528   15.7543   18.4485 C.3         1 ROC       0.0773
     18 C14        10.8978   14.4830   18.1961 C.2         1 ROC       0.1780
     19 O3         11.2172   13.8078   17.2289 O.2         1 ROC      -0.3970
     20 N3          9.9428   14.0277   18.9786 N.am        1 ROC      -0.3007
     21 C15        13.6275   20.8706   17.7003 C.3         1 ROC       0.1194
     22 O4         12.5724   21.0259   16.7419 O.3         1 ROC      -0.3840
     23 C16        13.2051   19.8047   18.7696 C.3         1 ROC       0.0823
     24 N4         12.7006   18.6055   18.1330 N.am        1 ROC      -0.2772
     25 C17        14.3430   19.4887   19.7887 C.3         1 ROC       0.0066
     26 C18        13.8904   18.8723   21.0671 C.ar        1 ROC      -0.0408
     27 C19        13.4040   17.5464   21.0915 C.ar        1 ROC      -0.0603
     28 C20        13.9956   19.5728   22.2905 C.ar        1 ROC      -0.0603
     29 C21        13.0037   16.9420   22.2994 C.ar        1 ROC      -0.0686
     30 C22        13.6191   18.9697   23.5048 C.ar        1 ROC      -0.0686
     31 C23        13.1160   17.6553   23.5070 C.ar        1 ROC      -0.0687
     32 N5         15.7296   21.8290   16.4609 N.4         1 ROC       0.2562
     33 C24        14.9690   20.6075   16.9381 C.3         1 ROC      -0.0008
     34 C25        14.9430   22.8520   15.6664 C.3         1 ROC       0.0688
     35 C26        14.1841   22.3092   14.5426 C.2         1 ROC       0.2251
     36 O5         13.1725   22.9031   14.1897 O.2         1 ROC      -0.3909
     37 C27        15.8767   23.9765   15.1183 C.3         1 ROC       0.0113
     38 C28        16.7265   24.6355   16.2428 C.3         1 ROC      -0.0261
     39 C29        17.6936   25.7338   15.7007 C.3         1 ROC      -0.0494
     40 C30        18.9207   25.1550   14.9497 C.3         1 ROC      -0.0528
     41 C31        19.6697   24.0950   15.7997 C.3         1 ROC      -0.0526
     42 C32        18.7220   22.9761   16.3042 C.3         1 ROC      -0.0451
     43 C33        17.5010   23.5661   17.0777 C.3         1 ROC       0.0024
     44 C34        16.5243   22.4616   17.5733 C.3         1 ROC      -0.0266
     45 N6         14.5867   21.2048   13.9295 N.am        1 ROC      -0.2771
     46 C35        13.9296   20.4434   12.8977 C.3         1 ROC       0.0448
     47 C36        12.4513   20.1008   13.2687 C.3         1 ROC      -0.0396
     48 C37        14.7145   19.1041   12.7708 C.3         1 ROC      -0.0396
     49 C38        14.0040   21.2040   11.5470 C.3         1 ROC      -0.0396
     50 H1          9.5255   16.1056   12.7229 H           1 ROC       0.0729
     51 H2         10.6010   15.7086   10.6219 H           1 ROC       0.0774
     52 H3         12.7331   15.4146    9.2863 H           1 ROC       0.0657
     53 H4         15.1494   15.3586    9.2354 H           1 ROC       0.0652
     54 H5         16.4260   15.6987   11.2709 H           1 ROC       0.0657
     55 H6         15.2908   16.1142   13.3597 H           1 ROC       0.0653
     56 H7         12.4330   16.8560   16.0468 H           1 ROC       0.1882
     57 H8          9.9309   16.8584   17.5923 H           1 ROC       0.0826
     58 H9         11.3978   16.0212   19.5000 H           1 ROC       0.0551
     59 H10        12.6293   15.6289   18.3023 H           1 ROC       0.0551
     60 H11         9.5177   13.1740   18.7859 H           1 ROC       0.1814
     61 H12         9.6584   14.5381   19.7575 H           1 ROC       0.1814
     62 H13        13.7091   21.8283   18.2256 H           1 ROC       0.0672
     63 H14        11.9513   21.6826   17.1187 H           1 ROC       0.2101
     64 H15        12.4072   20.2874   19.3483 H           1 ROC       0.0606
     65 H16        13.3507   18.0357   17.6895 H           1 ROC       0.1857
     66 H17        14.8698   20.4198   20.0127 H           1 ROC       0.0449
     67 H18        15.0784   18.8197   19.3346 H           1 ROC       0.0449
     68 H19        13.3581   16.9974   20.2301 H           1 ROC       0.0557
     69 H20        14.3573   20.5311   22.3142 H           1 ROC       0.0557
     70 H21        12.6435   15.9856   22.3007 H           1 ROC       0.0599
     71 H22        13.7060   19.4874   24.3828 H           1 ROC       0.0599
     72 H23        12.8320   17.2161   24.3829 H           1 ROC       0.0559
     73 H24        16.4272   21.4649   15.8101 H           1 ROC       0.2057
     74 H25        14.7511   19.9580   16.0941 H           1 ROC       0.0841
     75 H26        15.6466   20.0176   17.5530 H           1 ROC       0.0841
     76 H27        14.2380   23.3335   16.3561 H           1 ROC       0.1100
     77 H28        15.2693   24.7551   14.6457 H           1 ROC       0.0348
     78 H29        16.5318   23.5579   14.3474 H           1 ROC       0.0348
     79 H30        16.0270   25.1399   16.9187 H           1 ROC       0.0309
     80 H31        18.0554   26.3302   16.5476 H           1 ROC       0.0268
     81 H32        17.1506   26.4107   15.0386 H           1 ROC       0.0268
     82 H33        19.6104   25.9699   14.7085 H           1 ROC       0.0265
     83 H34        18.6018   24.7050   14.0072 H           1 ROC       0.0265
     84 H35        20.1366   24.5838   16.6576 H           1 ROC       0.0265
     85 H36        20.4633   23.6502   15.1951 H           1 ROC       0.0265
     86 H37        19.2839   22.3125   16.9596 H           1 ROC       0.0270
     87 H38        18.3772   22.3844   15.4512 H           1 ROC       0.0270
     88 H39        17.9002   24.0623   17.9704 H           1 ROC       0.0355
     89 H40        17.1173   21.7057   18.0948 H           1 ROC       0.0818
     90 H41        15.8539   22.9063   18.3117 H           1 ROC       0.0818
     91 H42        15.4123   20.8143   14.2640 H           1 ROC       0.1859
     92 H43        12.0209   19.4132   12.5366 H           1 ROC       0.0254
     93 H44        11.8246   20.9945   13.2809 H           1 ROC       0.0254
     94 H45        12.4029   19.6351   14.2571 H           1 ROC       0.0254
     95 H46        14.2708   18.4682   12.0029 H           1 ROC       0.0254
     96 H47        14.6986   18.5565   13.7170 H           1 ROC       0.0254
     97 H48        15.7563   19.2888   12.4969 H           1 ROC       0.0254
     98 H49        13.5563   20.5998   10.7578 H           1 ROC       0.0254
     99 H50        15.0412   21.4150   11.2774 H           1 ROC       0.0254
    100 H51        13.4683   22.1522   11.5983 H           1 ROC       0.0254
@<TRIPOS>BOND
     1     2     1   2
     2     2     4   1
     3    13     2  am
     4     4     3  ar
     5     3    12  ar
     6     4     5  ar
     7     5     6  ar
     8     6     7  ar
     9     7     8  ar
    10    12     7  ar
    11     8     9  ar
    12    10     9  ar
    13    11    10  ar
    14    12    11  ar
    15    14    13   1
    16    15    14   1
    17    14    17   1
    18    15    16   2
    19    24    15  am
    20    17    18   1
    21    18    19   2
    22    18    20  am
    23    21    22   1
    24    23    21   1
    25    21    33   1
    26    23    24   1
    27    23    25   1
    28    25    26   1
    29    26    27  ar
    30    26    28  ar
    31    27    29  ar
    32    28    30  ar
    33    29    31  ar
    34    30    31  ar
    35    33    32   1
    36    32    34   1
    37    32    44   1
    38    34    35   1
    39    34    37   1
    40    35    36   2
    41    35    45  am
    42    37    38   1
    43    38    39   1
    44    38    43   1
    45    39    40   1
    46    40    41   1
    47    41    42   1
    48    42    43   1
    49    43    44   1
    50    45    46   1
    51    46    47   1
    52    46    48   1
    53    46    49   1
    54     5    50   1
    55     6    51   1
    56     8    52   1
    57     9    53   1
    58    10    54   1
    59    11    55   1
    60    13    56   1
    61    14    57   1
    62    17    58   1
    63    17    59   1
    64    20    60   1
    65    20    61   1
    66    21    62   1
    67    22    63   1
    68    23    64   1
    69    24    65   1
    70    25    66   1
    71    25    67   1
    72    27    68   1
    73    28    69   1
    74    29    70   1
    75    30    71   1
    76    31    72   1
    77    32    73   1
    78    33    74   1
    79    33    75   1
    80    34    76   1
    81    37    77   1
    82    37    78   1
    83    38    79   1
    84    39    80   1
    85    39    81   1
    86    40    82   1
    87    40    83   1
    88    41    84   1
    89    41    85   1
    90    42    86   1
    91    42    87   1
    92    43    88   1
    93    44    89   1
    94    44    90   1
    95    45    91   1
    96    47    92   1
    97    47    93   1
    98    47    94   1
    99    48    95   1
   100    48    96   1
   101    48    97   1
   102    49    98   1
   103    49    99   1
   104    49   100   1
@<TRIPOS>SUBSTRUCTURE
     1  ROC      2

