@<TRIPOS>MOLECULE
3cyx_ligand_017
   100   104
SMALL
GAST_HUCK
****
This file was generated by PARSER (from files_GN.cpp)

@<TRIPOS>ATOM
      1 O1         17.2965   23.4877   16.5535 O.2         1 ROC      -0.3762
      2 C1         17.4470   23.6170   17.7607 C.2         1 ROC       0.2293
      3 N1         18.7925   24.1953   19.6298 N.ar        1 ROC      -0.2737
      4 C2         18.6508   24.0898   18.2785 C.ar        1 ROC       0.1219
      5 C3         19.7417   24.4997   17.4738 C.ar        1 ROC      -0.0136
      6 C4         20.9084   25.0060   18.0773 C.ar        1 ROC      -0.0314
      7 C5         21.0030   25.0982   19.4814 C.ar        1 ROC       0.0097
      8 C6         22.1478   25.6050   20.1353 C.ar        1 ROC      -0.0444
      9 C7         22.1853   25.6793   21.5413 C.ar        1 ROC      -0.0546
     10 C8         21.0837   25.2478   22.3033 C.ar        1 ROC      -0.0545
     11 C9R        19.9386   24.7387   21.6628 C.ar        1 ROC      -0.0370
     12 C10        19.8960   24.6666   20.2569 C.ar        1 ROC       0.0527
     13 N2         16.4584   23.3162   18.5939 N.am        1 ROC      -0.2600
     14 C11        15.1065   22.9007   18.3349 C.3         1 ROC       0.1473
     15 C12        14.9591   21.5844   17.7216 C.2         1 ROC       0.2045
     16 O2         15.9022   21.0031   17.2042 O.2         1 ROC      -0.3943
     17 C13        14.2143   24.0325   17.7143 C.3         1 ROC       0.0773
     18 C14        13.9350   23.9571   16.2890 C.2         1 ROC       0.1780
     19 O3         14.8230   24.1170   15.4672 O.2         1 ROC      -0.3970
     20 N3         12.7170   23.7569   15.8337 N.am        1 ROC      -0.3007
     21 C15        11.8174   19.7423   17.1622 C.3         1 ROC       0.1194
     22 O4         11.1673   20.2849   18.3151 O.3         1 ROC      -0.3840
     23 C16        13.3631   19.6829   17.3990 C.3         1 ROC       0.0823
     24 N4         13.7681   21.0096   17.7947 N.am        1 ROC      -0.2772
     25 C17        13.8594   18.5901   18.4053 C.3         1 ROC       0.0066
     26 C18        13.7739   18.9325   19.8591 C.ar        1 ROC      -0.0408
     27 C19        14.6879   19.8554   20.4287 C.ar        1 ROC      -0.0603
     28 C20        12.8427   18.2931   20.7179 C.ar        1 ROC      -0.0603
     29 C21        14.6699   20.1414   21.8073 C.ar        1 ROC      -0.0686
     30 C22        12.8398   18.5602   22.1008 C.ar        1 ROC      -0.0686
     31 C23        13.7498   19.4902   22.6454 C.ar        1 ROC      -0.0687
     32 N5         11.3902   17.6267   15.5572 N.4         1 ROC       0.2562
     33 C24        11.0701   18.4190   16.8084 C.3         1 ROC      -0.0008
     34 C25        10.3407   16.5592   15.2816 C.3         1 ROC       0.0688
     35 C26        10.1822   15.6256   16.3997 C.2         1 ROC       0.2251
     36 O5         11.0876   14.8391   16.6492 O.2         1 ROC      -0.3909
     37 C27        10.5944   15.7370   13.9762 C.3         1 ROC       0.0113
     38 C28        10.8538   16.6465   12.7401 C.3         1 ROC      -0.0261
     39 C29        11.1970   15.8369   11.4493 C.3         1 ROC      -0.0494
     40 C30        12.6171   15.2123   11.4749 C.3         1 ROC      -0.0528
     41 C31        13.7063   16.2578   11.8284 C.3         1 ROC      -0.0526
     42 C32        13.3741   17.0552   13.1175 C.3         1 ROC      -0.0451
     43 C33        11.9567   17.7079   13.0572 C.3         1 ROC       0.0024
     44 C34        11.5919   18.4977   14.3514 C.3         1 ROC      -0.0266
     45 N6          9.1043   15.7144   17.1735 N.am        1 ROC      -0.2771
     46 C35         8.6726   14.8895   18.2789 C.3         1 ROC       0.0448
     47 C36         7.7173   13.7989   17.7117 C.3         1 ROC      -0.0396
     48 C37         7.8671   15.8421   19.2191 C.3         1 ROC      -0.0396
     49 C38         9.8206   14.2237   19.1085 C.3         1 ROC      -0.0396
     50 H1         19.6935   24.4482   16.4526 H           1 ROC       0.0729
     51 H2         21.6831   25.3149   17.4865 H           1 ROC       0.0774
     52 H3         22.9559   25.9258   19.5970 H           1 ROC       0.0657
     53 H4         23.0155   26.0505   22.0125 H           1 ROC       0.0652
     54 H5         21.1137   25.3067   23.3245 H           1 ROC       0.0657
     55 H6         19.1412   24.4274   22.2239 H           1 ROC       0.0653
     56 H7         16.6757   23.4235   19.5383 H           1 ROC       0.1882
     57 H8         14.7299   22.7690   19.3575 H           1 ROC       0.0826
     58 H9         14.6657   25.0098   17.9215 H           1 ROC       0.0551
     59 H10        13.2583   24.0332   18.2517 H           1 ROC       0.0551
     60 H11        12.5550   23.7284   14.8771 H           1 ROC       0.1814
     61 H12        11.9740   23.6477   16.4510 H           1 ROC       0.1814
     62 H13        11.6225   20.4532   16.3523 H           1 ROC       0.0672
     63 H14        11.0080   21.2346   18.1099 H           1 ROC       0.2101
     64 H15        13.8234   19.4661   16.4335 H           1 ROC       0.0606
     65 H16        13.0753   21.5565   18.2041 H           1 ROC       0.1857
     66 H17        14.9103   18.3783   18.1763 H           1 ROC       0.0449
     67 H18        13.3286   17.6558   18.2186 H           1 ROC       0.0449
     68 H19        15.3956   20.3092   19.8466 H           1 ROC       0.0557
     69 H20        12.1702   17.6166   20.3444 H           1 ROC       0.0557
     70 H21        15.3367   20.8090   22.2009 H           1 ROC       0.0599
     71 H22        12.1832   18.0748   22.7141 H           1 ROC       0.0599
     72 H23        13.7510   19.6843   23.6541 H           1 ROC       0.0559
     73 H24        12.2808   17.1524   15.7256 H           1 ROC       0.2057
     74 H25        10.0006   18.6755   16.7898 H           1 ROC       0.0841
     75 H26        11.2268   17.7561   17.6656 H           1 ROC       0.0841
     76 H27         9.3832   17.0728   15.1222 H           1 ROC       0.1100
     77 H28         9.7242   15.1084   13.7734 H           1 ROC       0.0348
     78 H29        11.4479   15.0712   14.1226 H           1 ROC       0.0348
     79 H30         9.9229   17.1859   12.5364 H           1 ROC       0.0309
     80 H31        11.1301   16.5046   10.5846 H           1 ROC       0.0268
     81 H32        10.4610   15.0420   11.3055 H           1 ROC       0.0268
     82 H33        12.8404   14.7829   10.4949 H           1 ROC       0.0265
     83 H34        12.6475   14.3968   12.2018 H           1 ROC       0.0265
     84 H35        13.8099   16.9561   10.9969 H           1 ROC       0.0265
     85 H36        14.6654   15.7460   11.9589 H           1 ROC       0.0265
     86 H37        14.1344   17.8293   13.2586 H           1 ROC       0.0270
     87 H38        13.4366   16.3794   13.9702 H           1 ROC       0.0270
     88 H39        11.9733   18.4339   12.2330 H           1 ROC       0.0355
     89 H40        12.3993   19.2080   14.5250 H           1 ROC       0.0818
     90 H41        10.6783   19.0798   14.1592 H           1 ROC       0.0818
     91 H42         8.4929   16.4432   16.9587 H           1 ROC       0.1859
     92 H43         7.3071   13.1856   18.5179 H           1 ROC       0.0254
     93 H44         8.2563   13.1451   17.0207 H           1 ROC       0.0254
     94 H45         6.8848   14.2534   17.1681 H           1 ROC       0.0254
     95 H46         7.4496   15.2989   20.0693 H           1 ROC       0.0254
     96 H47         7.0404   16.3171   18.6846 H           1 ROC       0.0254
     97 H48         8.5185   16.6315   19.6032 H           1 ROC       0.0254
     98 H49         9.4296   13.7683   20.0222 H           1 ROC       0.0254
     99 H50        10.5668   14.9712   19.3869 H           1 ROC       0.0254
    100 H51        10.3162   13.4378   18.5336 H           1 ROC       0.0254
@<TRIPOS>BOND
     1     2     1   2
     2     2     4   1
     3    13     2  am
     4     4     3  ar
     5     3    12  ar
     6     4     5  ar
     7     5     6  ar
     8     6     7  ar
     9     7     8  ar
    10    12     7  ar
    11     8     9  ar
    12    10     9  ar
    13    11    10  ar
    14    12    11  ar
    15    14    13   1
    16    15    14   1
    17    14    17   1
    18    15    16   2
    19    24    15  am
    20    17    18   1
    21    18    19   2
    22    18    20  am
    23    21    22   1
    24    23    21   1
    25    21    33   1
    26    23    24   1
    27    23    25   1
    28    25    26   1
    29    26    27  ar
    30    26    28  ar
    31    27    29  ar
    32    28    30  ar
    33    29    31  ar
    34    30    31  ar
    35    33    32   1
    36    32    34   1
    37    32    44   1
    38    34    35   1
    39    34    37   1
    40    35    36   2
    41    35    45  am
    42    37    38   1
    43    38    39   1
    44    38    43   1
    45    39    40   1
    46    40    41   1
    47    41    42   1
    48    42    43   1
    49    43    44   1
    50    45    46   1
    51    46    47   1
    52    46    48   1
    53    46    49   1
    54     5    50   1
    55     6    51   1
    56     8    52   1
    57     9    53   1
    58    10    54   1
    59    11    55   1
    60    13    56   1
    61    14    57   1
    62    17    58   1
    63    17    59   1
    64    20    60   1
    65    20    61   1
    66    21    62   1
    67    22    63   1
    68    23    64   1
    69    24    65   1
    70    25    66   1
    71    25    67   1
    72    27    68   1
    73    28    69   1
    74    29    70   1
    75    30    71   1
    76    31    72   1
    77    32    73   1
    78    33    74   1
    79    33    75   1
    80    34    76   1
    81    37    77   1
    82    37    78   1
    83    38    79   1
    84    39    80   1
    85    39    81   1
    86    40    82   1
    87    40    83   1
    88    41    84   1
    89    41    85   1
    90    42    86   1
    91    42    87   1
    92    43    88   1
    93    44    89   1
    94    44    90   1
    95    45    91   1
    96    47    92   1
    97    47    93   1
    98    47    94   1
    99    48    95   1
   100    48    96   1
   101    48    97   1
   102    49    98   1
   103    49    99   1
   104    49   100   1
@<TRIPOS>SUBSTRUCTURE
     1  ROC      2

