@<TRIPOS>MOLECULE
3cyx_ligand_064
   100   104
SMALL
GAST_HUCK
****
This file was generated by PARSER (from files_GN.cpp)

@<TRIPOS>ATOM
      1 O1         12.7479   18.7626   12.6892 O.2         1 ROC      -0.3762
      2 C1         12.3758   18.9678   13.8384 C.2         1 ROC       0.2293
      3 N1         11.2854   18.1897   15.7901 N.ar        1 ROC      -0.2737
      4 C2         11.9360   17.9141   14.6272 C.ar        1 ROC       0.1219
      5 C3         12.0994   16.5508   14.2679 C.ar        1 ROC      -0.0136
      6 C4         11.6026   15.5396   15.1113 C.ar        1 ROC      -0.0314
      7 C5         10.9312   15.8736   16.3055 C.ar        1 ROC       0.0097
      8 C6         10.4100   14.8982   17.1821 C.ar        1 ROC      -0.0444
      9 C7          9.7319   15.2875   18.3541 C.ar        1 ROC      -0.0546
     10 C8          9.5757   16.6541   18.6599 C.ar        1 ROC      -0.0545
     11 C9R        10.1022   17.6341   17.7979 C.ar        1 ROC      -0.0370
     12 C10        10.7797   17.2495   16.6299 C.ar        1 ROC       0.0527
     13 N2         12.4182   20.2031   14.3381 N.am        1 ROC      -0.2600
     14 C11        12.7331   21.4232   13.6398 C.3         1 ROC       0.1473
     15 C12        14.1517   21.7540   13.8734 C.2         1 ROC       0.2045
     16 O2         14.9873   20.8674   13.7639 O.2         1 ROC      -0.3943
     17 C13        11.7066   22.5240   14.0757 C.3         1 ROC       0.0773
     18 C14        10.3227   22.0806   14.2329 C.2         1 ROC       0.1780
     19 O3          9.6641   21.7172   13.2783 O.2         1 ROC      -0.3970
     20 N3          9.7665   22.0457   15.4258 N.am        1 ROC      -0.3007
     21 C15        15.7274   23.2483   16.3058 C.3         1 ROC       0.1194
     22 O4         15.9855   24.4724   16.9925 O.3         1 ROC      -0.3840
     23 C16        15.8308   23.3734   14.7307 C.3         1 ROC       0.0823
     24 N4         14.5533   22.9889   14.1849 N.am        1 ROC      -0.2772
     25 C17        16.1916   24.7867   14.1627 C.3         1 ROC       0.0066
     26 C18        17.6046   25.2046   14.3946 C.ar        1 ROC      -0.0408
     27 C19        18.6143   24.8760   13.4570 C.ar        1 ROC      -0.0603
     28 C20        17.9707   25.9452   15.5382 C.ar        1 ROC      -0.0603
     29 C21        19.9575   25.2477   13.6783 C.ar        1 ROC      -0.0686
     30 C22        19.3154   26.2826   15.7828 C.ar        1 ROC      -0.0686
     31 C23        20.3068   25.9348   14.8500 C.ar        1 ROC      -0.0687
     32 N5         16.0915   21.4129   18.1612 N.4         1 ROC       0.2562
     33 C24        16.6169   22.1188   16.9295 C.3         1 ROC      -0.0008
     34 C25        15.9326   22.2584   19.4016 C.3         1 ROC       0.0688
     35 C26        17.1660   22.9614   19.7865 C.2         1 ROC       0.2251
     36 O5         17.1947   24.1782   19.7098 O.2         1 ROC      -0.3909
     37 C27        15.4202   21.4085   20.6155 C.3         1 ROC       0.0113
     38 C28        14.1839   20.5253   20.2744 C.3         1 ROC      -0.0261
     39 C29        13.7408   19.6097   21.4587 C.3         1 ROC      -0.0494
     40 C30        14.6830   18.3955   21.6832 C.3         1 ROC      -0.0528
     41 C31        14.9266   17.5855   20.3836 C.3         1 ROC      -0.0526
     42 C32        15.3997   18.4839   19.2140 C.3         1 ROC      -0.0451
     43 C33        14.4176   19.6718   18.9894 C.3         1 ROC       0.0024
     44 C34        14.8704   20.5974   17.8309 C.3         1 ROC      -0.0266
     45 N6         18.2299   22.2794   20.2237 N.am        1 ROC      -0.2771
     46 C35        19.5235   22.7676   20.6461 C.3         1 ROC       0.0448
     47 C36        19.4365   23.7554   21.8555 C.3         1 ROC      -0.0396
     48 C37        20.2514   23.4474   19.4460 C.3         1 ROC      -0.0396
     49 C38        20.3406   21.5095   21.0893 C.3         1 ROC      -0.0396
     50 H1         12.5778   16.2832   13.4045 H           1 ROC       0.0729
     51 H2         11.7318   14.5588   14.8484 H           1 ROC       0.0774
     52 H3         10.5155   13.9021   16.9728 H           1 ROC       0.0657
     53 H4          9.3475   14.5779   18.9807 H           1 ROC       0.0652
     54 H5          9.0773   16.9335   19.5060 H           1 ROC       0.0657
     55 H6          9.9780   18.6259   18.0264 H           1 ROC       0.0653
     56 H7         12.1711   20.2968   15.2721 H           1 ROC       0.1882
     57 H8         12.6130   21.2862   12.5592 H           1 ROC       0.0826
     58 H9         11.7098   23.3274   13.3368 H           1 ROC       0.0551
     59 H10        12.0513   22.9567   15.0182 H           1 ROC       0.0551
     60 H11         8.8507   21.7383   15.5324 H           1 ROC       0.1814
     61 H12        10.2706   22.3264   16.2051 H           1 ROC       0.1814
     62 H13        14.6892   23.0365   16.5666 H           1 ROC       0.0672
     63 H14        15.2863   25.0965   16.7053 H           1 ROC       0.2101
     64 H15        16.5999   22.6897   14.3627 H           1 ROC       0.0606
     65 H16        13.8633   23.6691   14.2289 H           1 ROC       0.1857
     66 H17        15.5016   25.5276   14.5707 H           1 ROC       0.0449
     67 H18        16.0262   24.7952   13.0828 H           1 ROC       0.0449
     68 H19        18.3764   24.3735   12.6017 H           1 ROC       0.0557
     69 H20        17.2556   26.2284   16.2104 H           1 ROC       0.0557
     70 H21        20.6718   25.0149   12.9880 H           1 ROC       0.0599
     71 H22        19.5677   26.7806   16.6407 H           1 ROC       0.0599
     72 H23        21.2815   26.1897   15.0214 H           1 ROC       0.0559
     73 H24        16.8028   20.7236   18.4035 H           1 ROC       0.2057
     74 H25        17.6026   22.5371   17.1450 H           1 ROC       0.0841
     75 H26        16.7972   21.3447   16.1809 H           1 ROC       0.0841
     76 H27        15.1524   23.0013   19.1989 H           1 ROC       0.1100
     77 H28        15.1572   22.0796   21.4386 H           1 ROC       0.0348
     78 H29        16.2215   20.7600   20.9699 H           1 ROC       0.0348
     79 H30        13.3518   21.2073   20.0710 H           1 ROC       0.0309
     80 H31        12.7346   19.2340   21.2539 H           1 ROC       0.0268
     81 H32        13.6856   20.1973   22.3777 H           1 ROC       0.0268
     82 H33        14.2395   17.7345   22.4337 H           1 ROC       0.0265
     83 H34        15.6426   18.7417   22.0767 H           1 ROC       0.0265
     84 H35        14.0011   17.0802   20.0957 H           1 ROC       0.0265
     85 H36        15.6842   16.8214   20.5707 H           1 ROC       0.0265
     86 H37        15.4565   17.8768   18.3053 H           1 ROC       0.0270
     87 H38        16.4062   18.8538   19.4269 H           1 ROC       0.0270
     88 H39        13.4560   19.2408   18.6856 H           1 ROC       0.0355
     89 H40        15.0549   19.9682   16.9537 H           1 ROC       0.0818
     90 H41        14.0207   21.2410   17.5922 H           1 ROC       0.0818
     91 H42        18.1132   21.3182   20.2649 H           1 ROC       0.1859
     92 H43        20.4308   23.9914   22.2416 H           1 ROC       0.0254
     93 H44        18.8520   23.3205   22.6660 H           1 ROC       0.0254
     94 H45        18.9657   24.6955   21.5663 H           1 ROC       0.0254
     95 H46        21.2810   23.7031   19.7067 H           1 ROC       0.0254
     96 H47        19.7410   24.3649   19.1481 H           1 ROC       0.0254
     97 H48        20.2704   22.7767   18.5852 H           1 ROC       0.0254
     98 H49        21.3485   21.7820   21.4122 H           1 ROC       0.0254
     99 H50        20.4287   20.7960   20.2655 H           1 ROC       0.0254
    100 H51        19.8458   21.0029   21.9221 H           1 ROC       0.0254
@<TRIPOS>BOND
     1     2     1   2
     2     2     4   1
     3    13     2  am
     4     4     3  ar
     5     3    12  ar
     6     4     5  ar
     7     5     6  ar
     8     6     7  ar
     9     7     8  ar
    10    12     7  ar
    11     8     9  ar
    12    10     9  ar
    13    11    10  ar
    14    12    11  ar
    15    14    13   1
    16    15    14   1
    17    14    17   1
    18    15    16   2
    19    24    15  am
    20    17    18   1
    21    18    19   2
    22    18    20  am
    23    21    22   1
    24    23    21   1
    25    21    33   1
    26    23    24   1
    27    23    25   1
    28    25    26   1
    29    26    27  ar
    30    26    28  ar
    31    27    29  ar
    32    28    30  ar
    33    29    31  ar
    34    30    31  ar
    35    33    32   1
    36    32    34   1
    37    32    44   1
    38    34    35   1
    39    34    37   1
    40    35    36   2
    41    35    45  am
    42    37    38   1
    43    38    39   1
    44    38    43   1
    45    39    40   1
    46    40    41   1
    47    41    42   1
    48    42    43   1
    49    43    44   1
    50    45    46   1
    51    46    47   1
    52    46    48   1
    53    46    49   1
    54     5    50   1
    55     6    51   1
    56     8    52   1
    57     9    53   1
    58    10    54   1
    59    11    55   1
    60    13    56   1
    61    14    57   1
    62    17    58   1
    63    17    59   1
    64    20    60   1
    65    20    61   1
    66    21    62   1
    67    22    63   1
    68    23    64   1
    69    24    65   1
    70    25    66   1
    71    25    67   1
    72    27    68   1
    73    28    69   1
    74    29    70   1
    75    30    71   1
    76    31    72   1
    77    32    73   1
    78    33    74   1
    79    33    75   1
    80    34    76   1
    81    37    77   1
    82    37    78   1
    83    38    79   1
    84    39    80   1
    85    39    81   1
    86    40    82   1
    87    40    83   1
    88    41    84   1
    89    41    85   1
    90    42    86   1
    91    42    87   1
    92    43    88   1
    93    44    89   1
    94    44    90   1
    95    45    91   1
    96    47    92   1
    97    47    93   1
    98    47    94   1
    99    48    95   1
   100    48    96   1
   101    48    97   1
   102    49    98   1
   103    49    99   1
   104    49   100   1
@<TRIPOS>SUBSTRUCTURE
     1  ROC      2

