@<TRIPOS>MOLECULE
3cyx_ligand_050
   100   104
SMALL
GAST_HUCK
****
This file was generated by PARSER (from files_GN.cpp)

@<TRIPOS>ATOM
      1 O1         18.7387   21.9736   16.2410 O.2         1 ROC      -0.3762
      2 C1         18.5419   22.5943   17.2783 C.2         1 ROC       0.2293
      3 N1         19.2847   24.2130   18.8514 N.ar        1 ROC      -0.2737
      4 C2         19.3123   23.7090   17.5848 C.ar        1 ROC       0.1219
      5 C3         20.1412   24.3556   16.6359 C.ar        1 ROC      -0.0136
      6 C4         20.8695   25.5009   17.0039 C.ar        1 ROC      -0.0314
      7 C5         20.8056   25.9915   18.3259 C.ar        1 ROC       0.0097
      8 C6         21.5192   27.1350   18.7430 C.ar        1 ROC      -0.0444
      9 C7         21.4393   27.5687   20.0794 C.ar        1 ROC      -0.0546
     10 C8         20.6413   26.8701   21.0042 C.ar        1 ROC      -0.0545
     11 C9R        19.9162   25.7348   20.5962 C.ar        1 ROC      -0.0370
     12 C10        19.9887   25.2988   19.2596 C.ar        1 ROC       0.0527
     13 N2         17.5630   22.2284   18.1042 N.am        1 ROC      -0.2600
     14 C11        16.7016   21.0881   17.9908 C.3         1 ROC       0.1473
     15 C12        15.3365   21.5432   17.7471 C.2         1 ROC       0.2045
     16 O2         14.5950   21.8031   18.6906 O.2         1 ROC      -0.3943
     17 C13        16.8921   20.1457   19.2168 C.3         1 ROC       0.0773
     18 C14        16.2833   20.5193   20.4870 C.2         1 ROC       0.1780
     19 O3         16.1461   21.6932   20.7998 O.2         1 ROC      -0.3970
     20 N3         15.9909   19.6112   21.3878 N.am        1 ROC      -0.3007
     21 C15        13.0716   21.0374   15.1442 C.3         1 ROC       0.1194
     22 O4         12.7055   21.4523   13.8298 O.3         1 ROC      -0.3840
     23 C16        13.6817   22.2202   16.0014 C.3         1 ROC       0.0823
     24 N4         14.9581   21.7786   16.5021 N.am        1 ROC      -0.2772
     25 C17        13.8058   23.6313   15.3196 C.3         1 ROC       0.0066
     26 C18        15.0876   23.9190   14.6106 C.ar        1 ROC      -0.0408
     27 C19        16.0682   24.7374   15.2259 C.ar        1 ROC      -0.0603
     28 C20        15.3486   23.4103   13.3185 C.ar        1 ROC      -0.0603
     29 C21        17.2672   25.0466   14.5646 C.ar        1 ROC      -0.0686
     30 C22        16.5635   23.7023   12.6647 C.ar        1 ROC      -0.0686
     31 C23        17.5223   24.5193   13.2864 C.ar        1 ROC      -0.0687
     32 N5         11.6619   18.8626   15.4483 N.4         1 ROC       0.2562
     33 C24        11.8624   20.3155   15.8229 C.3         1 ROC      -0.0008
     34 C25        10.7112   18.1263   16.3739 C.3         1 ROC       0.0688
     35 C26        11.1132   18.1823   17.7830 C.2         1 ROC       0.2251
     36 O5         10.3867   18.7485   18.5909 O.2         1 ROC      -0.3909
     37 C27        10.5525   16.6215   15.9817 C.3         1 ROC       0.0113
     38 C28        10.1778   16.4210   14.4857 C.3         1 ROC      -0.0261
     39 C29        10.1056   14.9160   14.0721 C.3         1 ROC      -0.0494
     40 C30        11.4947   14.2399   13.9264 C.3         1 ROC      -0.0528
     41 C31        12.4309   15.0476   12.9946 C.3         1 ROC      -0.0526
     42 C32        12.5410   16.5333   13.4247 C.3         1 ROC      -0.0451
     43 C33        11.1429   17.2143   13.5494 C.3         1 ROC       0.0024
     44 C34        11.2522   18.6972   14.0109 C.3         1 ROC      -0.0266
     45 N6         12.3034   17.7061   18.1370 N.am        1 ROC      -0.2771
     46 C35        12.9105   17.6344   19.4433 C.3         1 ROC       0.0448
     47 C36        14.3118   16.9792   19.2295 C.3         1 ROC      -0.0396
     48 C37        12.0794   16.7256   20.4025 C.3         1 ROC      -0.0396
     49 C38        13.1006   19.0569   20.0514 C.3         1 ROC      -0.0396
     50 H1         20.2069   24.0138   15.6721 H           1 ROC       0.0729
     51 H2         21.4496   25.9709   16.3041 H           1 ROC       0.0774
     52 H3         22.1065   27.6520   18.0836 H           1 ROC       0.0657
     53 H4         21.9647   28.3918   20.3808 H           1 ROC       0.0652
     54 H5         20.5881   27.1870   21.9748 H           1 ROC       0.0657
     55 H6         19.3392   25.2305   21.2745 H           1 ROC       0.0653
     56 H7         17.4221   22.7904   18.8808 H           1 ROC       0.1882
     57 H8         17.0093   20.4787   17.1334 H           1 ROC       0.0826
     58 H9         17.9652   20.0614   19.3996 H           1 ROC       0.0551
     59 H10        16.5474   19.1486   18.9350 H           1 ROC       0.0551
     60 H11        15.6462   19.8763   22.2588 H           1 ROC       0.1814
     61 H12        16.1080   18.6669   21.1911 H           1 ROC       0.1814
     62 H13        13.8343   20.2665   14.9885 H           1 ROC       0.0672
     63 H14        11.8991   22.0044   13.9447 H           1 ROC       0.2101
     64 H15        13.0194   22.3921   16.8551 H           1 ROC       0.0606
     65 H16        15.6365   21.6453   15.8206 H           1 ROC       0.1857
     66 H17        13.6764   24.3851   16.1020 H           1 ROC       0.0449
     67 H18        12.9694   23.8200   14.6432 H           1 ROC       0.0449
     68 H19        15.9123   25.1158   16.1630 H           1 ROC       0.0557
     69 H20        14.6572   22.8364   12.8344 H           1 ROC       0.0557
     70 H21        17.9512   25.6576   15.0115 H           1 ROC       0.0599
     71 H22        16.7429   23.3323   11.7298 H           1 ROC       0.0599
     72 H23        18.3988   24.7407   12.8088 H           1 ROC       0.0559
     73 H24        12.5729   18.4041   15.5524 H           1 ROC       0.2057
     74 H25        10.9487   20.8909   15.6446 H           1 ROC       0.0841
     75 H26        12.0541   20.3644   16.8948 H           1 ROC       0.0841
     76 H27         9.7209   18.5903   16.2707 H           1 ROC       0.1100
     77 H28         9.7691   16.1709   16.5990 H           1 ROC       0.0348
     78 H29        11.4838   16.0894   16.1923 H           1 ROC       0.0348
     79 H30         9.1721   16.8346   14.3515 H           1 ROC       0.0309
     80 H31         9.5872   14.8427   13.1124 H           1 ROC       0.0268
     81 H32         9.5123   14.3602   14.8018 H           1 ROC       0.0268
     82 H33        11.3644   13.2361   13.5167 H           1 ROC       0.0265
     83 H34        11.9638   14.1349   14.9068 H           1 ROC       0.0265
     84 H35        12.0542   14.9961   11.9690 H           1 ROC       0.0265
     85 H36        13.4283   14.6013   13.0073 H           1 ROC       0.0265
     86 H37        13.1451   17.0673   12.6841 H           1 ROC       0.0270
     87 H38        13.0681   16.5845   14.3785 H           1 ROC       0.0270
     88 H39        10.7019   17.2244   12.5457 H           1 ROC       0.0355
     89 H40        11.9716   19.1751   13.3462 H           1 ROC       0.0818
     90 H41        10.2861   19.1906   13.8466 H           1 ROC       0.0818
     91 H42        12.8360   17.3471   17.4112 H           1 ROC       0.1859
     92 H43        14.8648   16.9213   20.1703 H           1 ROC       0.0254
     93 H44        14.9029   17.5580   18.5178 H           1 ROC       0.0254
     94 H45        14.2083   15.9672   18.8310 H           1 ROC       0.0254
     95 H46        12.6235   16.5405   21.3331 H           1 ROC       0.0254
     96 H47        11.8716   15.7621   19.9322 H           1 ROC       0.0254
     97 H48        11.1276   17.1919   20.6602 H           1 ROC       0.0254
     98 H49        13.6227   18.9979   21.0093 H           1 ROC       0.0254
     99 H50        12.1448   19.5488   20.2237 H           1 ROC       0.0254
    100 H51        13.6861   19.6831   19.3796 H           1 ROC       0.0254
@<TRIPOS>BOND
     1     2     1   2
     2     2     4   1
     3    13     2  am
     4     4     3  ar
     5     3    12  ar
     6     4     5  ar
     7     5     6  ar
     8     6     7  ar
     9     7     8  ar
    10    12     7  ar
    11     8     9  ar
    12    10     9  ar
    13    11    10  ar
    14    12    11  ar
    15    14    13   1
    16    15    14   1
    17    14    17   1
    18    15    16   2
    19    24    15  am
    20    17    18   1
    21    18    19   2
    22    18    20  am
    23    21    22   1
    24    23    21   1
    25    21    33   1
    26    23    24   1
    27    23    25   1
    28    25    26   1
    29    26    27  ar
    30    26    28  ar
    31    27    29  ar
    32    28    30  ar
    33    29    31  ar
    34    30    31  ar
    35    33    32   1
    36    32    34   1
    37    32    44   1
    38    34    35   1
    39    34    37   1
    40    35    36   2
    41    35    45  am
    42    37    38   1
    43    38    39   1
    44    38    43   1
    45    39    40   1
    46    40    41   1
    47    41    42   1
    48    42    43   1
    49    43    44   1
    50    45    46   1
    51    46    47   1
    52    46    48   1
    53    46    49   1
    54     5    50   1
    55     6    51   1
    56     8    52   1
    57     9    53   1
    58    10    54   1
    59    11    55   1
    60    13    56   1
    61    14    57   1
    62    17    58   1
    63    17    59   1
    64    20    60   1
    65    20    61   1
    66    21    62   1
    67    22    63   1
    68    23    64   1
    69    24    65   1
    70    25    66   1
    71    25    67   1
    72    27    68   1
    73    28    69   1
    74    29    70   1
    75    30    71   1
    76    31    72   1
    77    32    73   1
    78    33    74   1
    79    33    75   1
    80    34    76   1
    81    37    77   1
    82    37    78   1
    83    38    79   1
    84    39    80   1
    85    39    81   1
    86    40    82   1
    87    40    83   1
    88    41    84   1
    89    41    85   1
    90    42    86   1
    91    42    87   1
    92    43    88   1
    93    44    89   1
    94    44    90   1
    95    45    91   1
    96    47    92   1
    97    47    93   1
    98    47    94   1
    99    48    95   1
   100    48    96   1
   101    48    97   1
   102    49    98   1
   103    49    99   1
   104    49   100   1
@<TRIPOS>SUBSTRUCTURE
     1  ROC      2

