@<TRIPOS>MOLECULE
3cyx_ligand_031
   100   104
SMALL
GAST_HUCK
****
This file was generated by PARSER (from files_GN.cpp)

@<TRIPOS>ATOM
      1 O1         16.7698   19.6629   17.7118 O.2         1 ROC      -0.3762
      2 C1         15.6233   20.0022   17.4313 C.2         1 ROC       0.2293
      3 N1         13.3624   19.3002   17.1357 N.ar        1 ROC      -0.2737
      4 C2         14.5578   19.1675   17.7827 C.ar        1 ROC       0.1219
      5 C3         14.6938   18.1042   18.7081 C.ar        1 ROC      -0.0136
      6 C4         13.6154   17.2262   18.9292 C.ar        1 ROC      -0.0314
      7 C5         12.4087   17.3847   18.2200 C.ar        1 ROC       0.0097
      8 C6         11.3248   16.4847   18.3602 C.ar        1 ROC      -0.0444
      9 C7         10.1610   16.6478   17.5854 C.ar        1 ROC      -0.0546
     10 C8         10.0666   17.7177   16.6756 C.ar        1 ROC      -0.0545
     11 C9R        11.1299   18.6289   16.5432 C.ar        1 ROC      -0.0370
     12 C10        12.3013   18.4667   17.3086 C.ar        1 ROC       0.0527
     13 N2         15.4125   21.1206   16.7406 N.am        1 ROC      -0.2600
     14 C11        16.3729   21.9470   16.0368 C.3         1 ROC       0.1473
     15 C12        17.4856   22.4093   16.8723 C.2         1 ROC       0.2045
     16 O2         18.4587   21.6771   16.9884 O.2         1 ROC      -0.3943
     17 C13        15.5727   23.0740   15.3071 C.3         1 ROC       0.0773
     18 C14        16.3498   23.9817   14.4813 C.2         1 ROC       0.1780
     19 O3         17.1649   23.5530   13.6769 O.2         1 ROC      -0.3970
     20 N3         16.1235   25.2778   14.4897 N.am        1 ROC      -0.3007
     21 C15        19.7027   24.5805   17.8557 C.3         1 ROC       0.1194
     22 O4         20.5190   23.4635   17.5027 O.3         1 ROC      -0.3840
     23 C16        18.3610   24.0860   18.5104 C.3         1 ROC       0.0823
     24 N4         17.4314   23.5605   17.5376 N.am        1 ROC      -0.2772
     25 C17        18.5532   23.1486   19.7579 C.3         1 ROC       0.0066
     26 C18        17.3982   22.2863   20.1567 C.ar        1 ROC      -0.0408
     27 C19        17.6134   20.9484   20.5652 C.ar        1 ROC      -0.0603
     28 C20        16.0714   22.7812   20.1671 C.ar        1 ROC      -0.0603
     29 C21        16.5390   20.1321   20.9684 C.ar        1 ROC      -0.0686
     30 C22        14.9914   21.9532   20.5266 C.ar        1 ROC      -0.0686
     31 C23        15.2273   20.6315   20.9425 C.ar        1 ROC      -0.0687
     32 N5         21.9496   25.8144   18.2821 N.4         1 ROC       0.2562
     33 C24        20.5139   25.5903   18.7279 C.3         1 ROC      -0.0008
     34 C25        22.1940   27.1135   17.5483 C.3         1 ROC       0.0688
     35 C26        21.3594   27.2750   16.3601 C.2         1 ROC       0.2251
     36 O5         20.7369   28.3210   16.2065 O.2         1 ROC      -0.3909
     37 C27        23.6867   27.2677   17.1040 C.3         1 ROC       0.0113
     38 C28        24.6860   27.0736   18.2814 C.3         1 ROC      -0.0261
     39 C29        26.1812   27.1693   17.8402 C.3         1 ROC      -0.0494
     40 C30        26.6857   25.9181   17.0729 C.3         1 ROC      -0.0528
     41 C31        26.3947   24.6091   17.8502 C.3         1 ROC      -0.0526
     42 C32        24.9013   24.4889   18.2496 C.3         1 ROC      -0.0451
     43 C33        24.4083   25.7389   19.0429 C.3         1 ROC       0.0024
     44 C34        22.9041   25.6417   19.4315 C.3         1 ROC      -0.0266
     45 N6         21.3560   26.3262   15.4332 N.am        1 ROC      -0.2771
     46 C35        20.7360   26.3197   14.1290 C.3         1 ROC       0.0448
     47 C36        20.9487   24.8807   13.5680 C.3         1 ROC      -0.0396
     48 C37        21.4470   27.3585   13.2104 C.3         1 ROC      -0.0396
     49 C38        19.2040   26.6124   14.1872 C.3         1 ROC      -0.0396
     50 H1         15.5707   17.9457   19.2140 H           1 ROC       0.0729
     51 H2         13.7271   16.4542   19.5869 H           1 ROC       0.0774
     52 H3         11.3800   15.6927   19.0054 H           1 ROC       0.0657
     53 H4          9.3827   15.9878   17.6780 H           1 ROC       0.0652
     54 H5          9.2285   17.8211   16.1023 H           1 ROC       0.0657
     55 H6         11.0564   19.3911   15.8682 H           1 ROC       0.0653
     56 H7         14.4784   21.3590   16.6031 H           1 ROC       0.1882
     57 H8         16.7965   21.3206   15.2433 H           1 ROC       0.0826
     58 H9         15.0041   23.6431   16.0482 H           1 ROC       0.0551
     59 H10        14.8435   22.5965   14.6471 H           1 ROC       0.0551
     60 H11        16.6178   25.8654   13.8909 H           1 ROC       0.1814
     61 H12        15.4505   25.6563   15.0789 H           1 ROC       0.1814
     62 H13        19.4412   25.0858   16.9252 H           1 ROC       0.0672
     63 H14        21.1462   23.8023   16.8336 H           1 ROC       0.2101
     64 H15        17.8681   24.9875   18.8829 H           1 ROC       0.0606
     65 H16        16.6356   24.0977   17.4019 H           1 ROC       0.1857
     66 H17        18.7943   23.7668   20.6283 H           1 ROC       0.0449
     67 H18        19.4246   22.5160   19.5780 H           1 ROC       0.0449
     68 H19        18.5602   20.5616   20.5916 H           1 ROC       0.0557
     69 H20        15.8766   23.7418   19.8824 H           1 ROC       0.0557
     70 H21        16.7118   19.1726   21.2785 H           1 ROC       0.0599
     71 H22        14.0354   22.3136   20.4885 H           1 ROC       0.0599
     72 H23        14.4449   20.0345   21.2211 H           1 ROC       0.0559
     73 H24        22.1828   25.0709   17.6191 H           1 ROC       0.2057
     74 H25        20.4768   25.2198   19.7546 H           1 ROC       0.0841
     75 H26        19.9651   26.5362   18.7456 H           1 ROC       0.0841
     76 H27        21.9857   27.9355   18.2437 H           1 ROC       0.1100
     77 H28        23.8361   28.2693   16.6846 H           1 ROC       0.0348
     78 H29        23.9135   26.5436   16.3169 H           1 ROC       0.0348
     79 H30        24.5128   27.8982   18.9829 H           1 ROC       0.0309
     80 H31        26.8002   27.2955   18.7348 H           1 ROC       0.0268
     81 H32        26.3292   28.0557   17.2188 H           1 ROC       0.0268
     82 H33        27.7644   26.0060   16.9144 H           1 ROC       0.0265
     83 H34        26.2126   25.8702   16.0901 H           1 ROC       0.0265
     84 H35        27.0110   24.5828   18.7546 H           1 ROC       0.0265
     85 H36        26.6719   23.7523   17.2302 H           1 ROC       0.0265
     86 H37        24.7751   23.5937   18.8636 H           1 ROC       0.0270
     87 H38        24.3040   24.3572   17.3447 H           1 ROC       0.0270
     88 H39        24.9774   25.7658   19.9789 H           1 ROC       0.0355
     89 H40        22.7472   24.6655   19.9009 H           1 ROC       0.0818
     90 H41        22.6948   26.4022   20.1905 H           1 ROC       0.0818
     91 H42        21.8726   25.5306   15.6536 H           1 ROC       0.1859
     92 H43        20.4958   24.7762   12.5806 H           1 ROC       0.0254
     93 H44        20.4908   24.1410   14.2310 H           1 ROC       0.0254
     94 H45        22.0144   24.6482   13.4855 H           1 ROC       0.0254
     95 H46        21.0563   27.3054   12.1924 H           1 ROC       0.0254
     96 H47        22.5236   27.1756   13.1762 H           1 ROC       0.0254
     97 H48        21.2842   28.3712   13.5805 H           1 ROC       0.0254
     98 H49        18.7470   26.4510   13.2075 H           1 ROC       0.0254
     99 H50        19.0060   27.6442   14.4817 H           1 ROC       0.0254
    100 H51        18.7188   25.9533   14.9069 H           1 ROC       0.0254
@<TRIPOS>BOND
     1     2     1   2
     2     2     4   1
     3    13     2  am
     4     4     3  ar
     5     3    12  ar
     6     4     5  ar
     7     5     6  ar
     8     6     7  ar
     9     7     8  ar
    10    12     7  ar
    11     8     9  ar
    12    10     9  ar
    13    11    10  ar
    14    12    11  ar
    15    14    13   1
    16    15    14   1
    17    14    17   1
    18    15    16   2
    19    24    15  am
    20    17    18   1
    21    18    19   2
    22    18    20  am
    23    21    22   1
    24    23    21   1
    25    21    33   1
    26    23    24   1
    27    23    25   1
    28    25    26   1
    29    26    27  ar
    30    26    28  ar
    31    27    29  ar
    32    28    30  ar
    33    29    31  ar
    34    30    31  ar
    35    33    32   1
    36    32    34   1
    37    32    44   1
    38    34    35   1
    39    34    37   1
    40    35    36   2
    41    35    45  am
    42    37    38   1
    43    38    39   1
    44    38    43   1
    45    39    40   1
    46    40    41   1
    47    41    42   1
    48    42    43   1
    49    43    44   1
    50    45    46   1
    51    46    47   1
    52    46    48   1
    53    46    49   1
    54     5    50   1
    55     6    51   1
    56     8    52   1
    57     9    53   1
    58    10    54   1
    59    11    55   1
    60    13    56   1
    61    14    57   1
    62    17    58   1
    63    17    59   1
    64    20    60   1
    65    20    61   1
    66    21    62   1
    67    22    63   1
    68    23    64   1
    69    24    65   1
    70    25    66   1
    71    25    67   1
    72    27    68   1
    73    28    69   1
    74    29    70   1
    75    30    71   1
    76    31    72   1
    77    32    73   1
    78    33    74   1
    79    33    75   1
    80    34    76   1
    81    37    77   1
    82    37    78   1
    83    38    79   1
    84    39    80   1
    85    39    81   1
    86    40    82   1
    87    40    83   1
    88    41    84   1
    89    41    85   1
    90    42    86   1
    91    42    87   1
    92    43    88   1
    93    44    89   1
    94    44    90   1
    95    45    91   1
    96    47    92   1
    97    47    93   1
    98    47    94   1
    99    48    95   1
   100    48    96   1
   101    48    97   1
   102    49    98   1
   103    49    99   1
   104    49   100   1
@<TRIPOS>SUBSTRUCTURE
     1  ROC      2

