@<TRIPOS>MOLECULE
3cyx_ligand_067
   100   104
SMALL
GAST_HUCK
****
This file was generated by PARSER (from files_GN.cpp)

@<TRIPOS>ATOM
      1 O1         17.5068   20.4799   18.7674 O.2         1 ROC      -0.3762
      2 C1         16.3866   19.9846   18.7194 C.2         1 ROC       0.2293
      3 N1         14.8503   18.5084   19.7694 N.ar        1 ROC      -0.2737
      4 C2         15.7613   19.5229   19.8598 C.ar        1 ROC       0.1219
      5 C3         15.9838   20.1215   21.1139 C.ar        1 ROC      -0.0136
      6 C4         15.2421   19.6905   22.2285 C.ar        1 ROC      -0.0314
      7 C5         14.3212   18.6311   22.1006 C.ar        1 ROC       0.0097
      8 C6         13.5783   18.1516   23.2008 C.ar        1 ROC      -0.0444
      9 C7         12.7092   17.0602   23.0457 C.ar        1 ROC      -0.0546
     10 C8         12.5480   16.4590   21.7822 C.ar        1 ROC      -0.0545
     11 C9R        13.2597   16.9474   20.6681 C.ar        1 ROC      -0.0370
     12 C10        14.1521   18.0261   20.8266 C.ar        1 ROC       0.0527
     13 N2         15.6788   20.0164   17.5949 N.am        1 ROC      -0.2600
     14 C11        16.0672   20.6140   16.3489 C.3         1 ROC       0.1473
     15 C12        16.4377   22.0289   16.4298 C.2         1 ROC       0.2045
     16 O2         16.2573   22.6441   17.4712 O.2         1 ROC      -0.3943
     17 C13        14.9732   20.3052   15.2701 C.3         1 ROC       0.0773
     18 C14        13.6065   20.5825   15.6837 C.2         1 ROC       0.1780
     19 O3         13.1623   21.7179   15.6214 O.2         1 ROC      -0.3970
     20 N3         12.8225   19.6232   16.1245 N.am        1 ROC      -0.3007
     21 C15        19.1563   23.9316   16.0007 C.3         1 ROC       0.1194
     22 O4         19.9950   22.9005   15.4829 O.3         1 ROC      -0.3840
     23 C16        17.7549   23.8445   15.2949 C.3         1 ROC       0.0823
     24 N4         17.0970   22.5670   15.4088 N.am        1 ROC      -0.2772
     25 C17        16.8494   25.1256   15.4320 C.3         1 ROC       0.0066
     26 C18        15.8021   25.0958   16.4852 C.ar        1 ROC      -0.0408
     27 C19        15.9999   25.6925   17.7523 C.ar        1 ROC      -0.0603
     28 C20        14.5931   24.3978   16.2472 C.ar        1 ROC      -0.0603
     29 C21        15.0600   25.5081   18.7843 C.ar        1 ROC      -0.0686
     30 C22        13.6431   24.2325   17.2696 C.ar        1 ROC      -0.0686
     31 C23        13.8854   24.7728   18.5435 C.ar        1 ROC      -0.0687
     32 N5         20.5365   24.2104   18.2286 N.4         1 ROC       0.2562
     33 C24        19.2319   23.8340   17.5515 C.3         1 ROC      -0.0008
     34 C25        20.7232   25.6978   18.4760 C.3         1 ROC       0.0688
     35 C26        20.8256   26.5182   17.2694 C.2         1 ROC       0.2251
     36 O5         20.2458   27.5999   17.2662 O.2         1 ROC      -0.3909
     37 C27        21.9899   26.0271   19.3324 C.3         1 ROC       0.0113
     38 C28        22.0203   25.2332   20.6667 C.3         1 ROC      -0.0261
     39 C29        23.2737   25.5580   21.5340 C.3         1 ROC      -0.0494
     40 C30        24.5846   24.9252   20.9914 C.3         1 ROC      -0.0528
     41 C31        24.4252   23.4042   20.7282 C.3         1 ROC      -0.0526
     42 C32        23.2107   23.0870   19.8201 C.3         1 ROC      -0.0451
     43 C33        21.9008   23.7040   20.3951 C.3         1 ROC       0.0024
     44 C34        20.6542   23.4167   19.5073 C.3         1 ROC      -0.0266
     45 N6         21.6476   26.1662   16.2875 N.am        1 ROC      -0.2771
     46 C35        21.9744   26.7797   15.0199 C.3         1 ROC       0.0448
     47 C36        21.7542   25.6956   13.9246 C.3         1 ROC      -0.0396
     48 C37        23.4881   27.1550   15.0653 C.3         1 ROC      -0.0396
     49 C38        21.1521   28.0457   14.6235 C.3         1 ROC      -0.0396
     50 H1         16.6449   20.8983   21.2234 H           1 ROC       0.0729
     51 H2         15.3813   20.1476   23.1316 H           1 ROC       0.0774
     52 H3         13.6713   18.5898   24.1195 H           1 ROC       0.0657
     53 H4         12.1979   16.7038   23.8537 H           1 ROC       0.0652
     54 H5         11.9051   15.6734   21.6727 H           1 ROC       0.0657
     55 H6         13.1304   16.5077   19.7491 H           1 ROC       0.0653
     56 H7         14.8007   19.6110   17.6361 H           1 ROC       0.1882
     57 H8         16.9709   20.0864   16.0457 H           1 ROC       0.0826
     58 H9         15.0457   19.2432   15.0139 H           1 ROC       0.0551
     59 H10        15.1998   20.8489   14.3460 H           1 ROC       0.0551
     60 H11        11.9255   19.8337   16.4226 H           1 ROC       0.1814
     61 H12        13.1524   18.7100   16.1728 H           1 ROC       0.1814
     62 H13        19.5929   24.8671   15.6763 H           1 ROC       0.0672
     63 H14        20.9108   23.1757   15.6639 H           1 ROC       0.2101
     64 H15        18.0243   23.8608   14.2355 H           1 ROC       0.0606
     65 H16        17.1865   21.9880   14.6322 H           1 ROC       0.1857
     66 H17        16.3528   25.2913   14.4694 H           1 ROC       0.0449
     67 H18        17.4813   26.0034   15.5869 H           1 ROC       0.0449
     68 H19        16.8437   26.2432   17.9433 H           1 ROC       0.0557
     69 H20        14.4089   23.9825   15.3309 H           1 ROC       0.0557
     70 H21        15.2392   25.8965   19.7101 H           1 ROC       0.0599
     71 H22        12.7925   23.6970   17.0925 H           1 ROC       0.0599
     72 H23        13.2053   24.6231   19.2929 H           1 ROC       0.0559
     73 H24        21.3016   23.9105   17.6163 H           1 ROC       0.2057
     74 H25        18.9987   22.7897   17.7751 H           1 ROC       0.0841
     75 H26        18.4361   24.4250   17.9905 H           1 ROC       0.0841
     76 H27        19.8623   26.0400   19.0648 H           1 ROC       0.1100
     77 H28        22.0068   27.0992   19.5670 H           1 ROC       0.0348
     78 H29        22.8928   25.8023   18.7573 H           1 ROC       0.0348
     79 H30        21.1456   25.5489   21.2460 H           1 ROC       0.0309
     80 H31        23.1007   25.1811   22.5450 H           1 ROC       0.0268
     81 H32        23.4061   26.6413   21.6157 H           1 ROC       0.0268
     82 H33        25.3840   25.0810   21.7205 H           1 ROC       0.0265
     83 H34        24.8793   25.4253   20.0673 H           1 ROC       0.0265
     84 H35        24.3036   22.8887   21.6879 H           1 ROC       0.0265
     85 H36        25.3382   23.0254   20.2611 H           1 ROC       0.0265
     86 H37        23.1020   22.0009   19.7570 H           1 ROC       0.0270
     87 H38        23.3999   23.4580   18.8120 H           1 ROC       0.0270
     88 H39        21.7188   23.2153   21.3610 H           1 ROC       0.0355
     89 H40        20.6643   22.3480   19.2751 H           1 ROC       0.0818
     90 H41        19.7686   23.5975   20.1260 H           1 ROC       0.0818
     91 H42        22.1146   25.3337   16.4516 H           1 ROC       0.1859
     92 H43        22.0747   26.0667   12.9545 H           1 ROC       0.0254
     93 H44        20.7005   25.4251   13.8482 H           1 ROC       0.0254
     94 H45        22.3225   24.7897   14.1370 H           1 ROC       0.0254
     95 H46        23.8186   27.5424   14.0985 H           1 ROC       0.0254
     96 H47        24.0988   26.2815   15.3075 H           1 ROC       0.0254
     97 H48        23.6676   27.9207   15.8240 H           1 ROC       0.0254
     98 H49        21.4148   28.3738   13.6172 H           1 ROC       0.0254
     99 H50        21.3593   28.8650   15.3151 H           1 ROC       0.0254
    100 H51        20.0801   27.8364   14.6354 H           1 ROC       0.0254
@<TRIPOS>BOND
     1     2     1   2
     2     2     4   1
     3    13     2  am
     4     4     3  ar
     5     3    12  ar
     6     4     5  ar
     7     5     6  ar
     8     6     7  ar
     9     7     8  ar
    10    12     7  ar
    11     8     9  ar
    12    10     9  ar
    13    11    10  ar
    14    12    11  ar
    15    14    13   1
    16    15    14   1
    17    14    17   1
    18    15    16   2
    19    24    15  am
    20    17    18   1
    21    18    19   2
    22    18    20  am
    23    21    22   1
    24    23    21   1
    25    21    33   1
    26    23    24   1
    27    23    25   1
    28    25    26   1
    29    26    27  ar
    30    26    28  ar
    31    27    29  ar
    32    28    30  ar
    33    29    31  ar
    34    30    31  ar
    35    33    32   1
    36    32    34   1
    37    32    44   1
    38    34    35   1
    39    34    37   1
    40    35    36   2
    41    35    45  am
    42    37    38   1
    43    38    39   1
    44    38    43   1
    45    39    40   1
    46    40    41   1
    47    41    42   1
    48    42    43   1
    49    43    44   1
    50    45    46   1
    51    46    47   1
    52    46    48   1
    53    46    49   1
    54     5    50   1
    55     6    51   1
    56     8    52   1
    57     9    53   1
    58    10    54   1
    59    11    55   1
    60    13    56   1
    61    14    57   1
    62    17    58   1
    63    17    59   1
    64    20    60   1
    65    20    61   1
    66    21    62   1
    67    22    63   1
    68    23    64   1
    69    24    65   1
    70    25    66   1
    71    25    67   1
    72    27    68   1
    73    28    69   1
    74    29    70   1
    75    30    71   1
    76    31    72   1
    77    32    73   1
    78    33    74   1
    79    33    75   1
    80    34    76   1
    81    37    77   1
    82    37    78   1
    83    38    79   1
    84    39    80   1
    85    39    81   1
    86    40    82   1
    87    40    83   1
    88    41    84   1
    89    41    85   1
    90    42    86   1
    91    42    87   1
    92    43    88   1
    93    44    89   1
    94    44    90   1
    95    45    91   1
    96    47    92   1
    97    47    93   1
    98    47    94   1
    99    48    95   1
   100    48    96   1
   101    48    97   1
   102    49    98   1
   103    49    99   1
   104    49   100   1
@<TRIPOS>SUBSTRUCTURE
     1  ROC      2

