@<TRIPOS>MOLECULE
3cyx_ligand_066
   100   104
SMALL
GAST_HUCK
****
This file was generated by PARSER (from files_GN.cpp)

@<TRIPOS>ATOM
      1 O1         22.3532   27.9870   18.4968 O.2         1 ROC      -0.3762
      2 C1         22.6742   27.4533   19.5497 C.2         1 ROC       0.2293
      3 N1         24.4182   26.8611   21.0657 N.ar        1 ROC      -0.2737
      4 C2         24.0237   27.2183   19.8095 C.ar        1 ROC       0.1219
      5 C3         25.0289   27.3580   18.8203 C.ar        1 ROC      -0.0136
      6 C4         26.3763   27.1228   19.1465 C.ar        1 ROC      -0.0314
      7 C5         26.7401   26.7731   20.4642 C.ar        1 ROC       0.0097
      8 C6         28.0835   26.5484   20.8426 C.ar        1 ROC      -0.0444
      9 C7         28.3972   26.1962   22.1675 C.ar        1 ROC      -0.0546
     10 C8         27.3714   26.0596   23.1226 C.ar        1 ROC      -0.0545
     11 C9R        26.0310   26.2859   22.7565 C.ar        1 ROC      -0.0370
     12 C10        25.7096   26.6421   21.4306 C.ar        1 ROC       0.0527
     13 N2         21.7322   27.0985   20.4273 N.am        1 ROC      -0.2600
     14 C11        20.3006   27.2865   20.3491 C.3         1 ROC       0.1473
     15 C12        19.7467   26.6852   19.1298 C.2         1 ROC       0.2045
     16 O2         19.9566   27.2450   18.0607 O.2         1 ROC      -0.3943
     17 C13        19.8870   28.7866   20.5853 C.3         1 ROC       0.0773
     18 C14        19.5053   29.1025   21.9512 C.2         1 ROC       0.1780
     19 O3         20.2414   28.7952   22.8764 O.2         1 ROC      -0.3970
     20 N3         18.3903   29.7406   22.2431 N.am        1 ROC      -0.3007
     21 C15        17.2309   24.6973   17.7141 C.3         1 ROC       0.1194
     22 O4         16.8904   26.0592   17.4166 O.3         1 ROC      -0.3840
     23 C16        18.7692   24.6820   18.0348 C.3         1 ROC       0.0823
     24 N4         19.0840   25.5266   19.1647 N.am        1 ROC      -0.2772
     25 C17        19.4325   23.2603   18.1521 C.3         1 ROC       0.0066
     26 C18        20.5199   23.0884   19.1691 C.ar        1 ROC      -0.0408
     27 C19        21.6489   23.9417   19.1688 C.ar        1 ROC      -0.0603
     28 C20        20.4576   22.0638   20.1462 C.ar        1 ROC      -0.0603
     29 C21        22.6455   23.8177   20.1586 C.ar        1 ROC      -0.0686
     30 C22        21.4472   21.9454   21.1412 C.ar        1 ROC      -0.0686
     31 C23        22.5335   22.8371   21.1590 C.ar        1 ROC      -0.0687
     32 N5         15.7687   22.7139   18.8805 N.4         1 ROC       0.2562
     33 C24        16.1993   24.1711   18.7825 C.3         1 ROC      -0.0008
     34 C25        15.8492   21.8848   17.6120 C.3         1 ROC       0.0688
     35 C26        15.0911   22.4280   16.4772 C.2         1 ROC       0.2251
     36 O5         14.2010   23.2455   16.6764 O.2         1 ROC      -0.3909
     37 C27        15.3932   20.4098   17.8330 C.3         1 ROC       0.0113
     38 C28        16.1016   19.7412   19.0464 C.3         1 ROC      -0.0261
     39 C29        15.6672   18.2570   19.2626 C.3         1 ROC      -0.0494
     40 C30        14.2259   18.1163   19.8201 C.3         1 ROC      -0.0528
     41 C31        14.0132   18.9737   21.0948 C.3         1 ROC      -0.0526
     42 C32        14.4306   20.4551   20.8930 C.3         1 ROC      -0.0451
     43 C33        15.8875   20.5795   20.3443 C.3         1 ROC       0.0024
     44 C34        16.3252   22.0547   20.1115 C.3         1 ROC      -0.0266
     45 N6         15.3595   21.9921   15.2512 N.am        1 ROC      -0.2771
     46 C35        14.8661   22.4501   13.9700 C.3         1 ROC       0.0448
     47 C36        15.6524   23.7329   13.5601 C.3         1 ROC      -0.0396
     48 C37        13.3279   22.7246   13.9443 C.3         1 ROC      -0.0396
     49 C38        15.1796   21.3091   12.9541 C.3         1 ROC      -0.0396
     50 H1         24.7953   27.6231   17.8587 H           1 ROC       0.0729
     51 H2         27.0880   27.2052   18.4176 H           1 ROC       0.0774
     52 H3         28.8386   26.6325   20.1582 H           1 ROC       0.0657
     53 H4         29.3706   26.0336   22.4379 H           1 ROC       0.0652
     54 H5         27.6052   25.7907   24.0804 H           1 ROC       0.0657
     55 H6         25.2941   26.1833   23.4586 H           1 ROC       0.0653
     56 H7         22.0564   26.6483   21.2230 H           1 ROC       0.1882
     57 H8         19.9027   26.7101   21.1911 H           1 ROC       0.0826
     58 H9         19.0706   29.0648   19.9156 H           1 ROC       0.0551
     59 H10        20.7170   29.4437   20.3259 H           1 ROC       0.0551
     60 H11        18.1887   29.9557   23.1661 H           1 ROC       0.1814
     61 H12        17.7723   30.0170   21.5465 H           1 ROC       0.1814
     62 H13        17.0915   24.1692   16.7723 H           1 ROC       0.0672
     63 H14        16.0086   26.0396   16.9798 H           1 ROC       0.2101
     64 H15        19.2345   25.1140   17.1407 H           1 ROC       0.0606
     65 H16        18.8925   25.1580   20.0436 H           1 ROC       0.1857
     66 H17        19.8531   22.9874   17.1777 H           1 ROC       0.0449
     67 H18        18.6598   22.5289   18.3423 H           1 ROC       0.0449
     68 H19        21.7472   24.6715   18.4572 H           1 ROC       0.0557
     69 H20        19.6899   21.3885   20.1463 H           1 ROC       0.0557
     70 H21        23.4530   24.4451   20.1531 H           1 ROC       0.0599
     71 H22        21.3833   21.2068   21.8469 H           1 ROC       0.0599
     72 H23        23.2493   22.7617   21.8862 H           1 ROC       0.0559
     73 H24        14.7646   22.7521   19.0791 H           1 ROC       0.2057
     74 H25        15.2576   24.6948   18.6004 H           1 ROC       0.0841
     75 H26        16.5263   24.5554   19.7524 H           1 ROC       0.0841
     76 H27        16.8962   21.8372   17.3090 H           1 ROC       0.1100
     77 H28        15.6238   19.8228   16.9382 H           1 ROC       0.0348
     78 H29        14.3107   20.3881   17.9703 H           1 ROC       0.0348
     79 H30        17.1761   19.7270   18.8296 H           1 ROC       0.0309
     80 H31        16.3562   17.7871   19.9703 H           1 ROC       0.0268
     81 H32        15.7478   17.7058   18.3207 H           1 ROC       0.0268
     82 H33        14.0367   17.0659   20.0597 H           1 ROC       0.0265
     83 H34        13.5041   18.4133   19.0554 H           1 ROC       0.0265
     84 H35        14.5987   18.5455   21.9131 H           1 ROC       0.0265
     85 H36        12.9590   18.9347   21.3825 H           1 ROC       0.0265
     86 H37        14.3617   20.9674   21.8567 H           1 ROC       0.0270
     87 H38        13.7269   20.9418   20.2135 H           1 ROC       0.0270
     88 H39        16.5498   20.1707   21.1169 H           1 ROC       0.0355
     89 H40        16.0193   22.6296   20.9922 H           1 ROC       0.0818
     90 H41        17.4109   22.0853   20.0855 H           1 ROC       0.0818
     91 H42        16.0331   21.2939   15.2038 H           1 ROC       0.1859
     92 H43        15.3494   24.0763   12.5679 H           1 ROC       0.0254
     93 H44        16.7261   23.5348   13.5392 H           1 ROC       0.0254
     94 H45        15.4715   24.5400   14.2728 H           1 ROC       0.0254
     95 H46        12.9668   22.8461   12.9193 H           1 ROC       0.0254
     96 H47        13.0831   23.6400   14.4879 H           1 ROC       0.0254
     97 H48        12.7840   21.8951   14.4012 H           1 ROC       0.0254
     98 H49        14.8593   21.5753   11.9442 H           1 ROC       0.0254
     99 H50        14.6650   20.3904   13.2437 H           1 ROC       0.0254
    100 H51        16.2500   21.1006   12.9230 H           1 ROC       0.0254
@<TRIPOS>BOND
     1     2     1   2
     2     2     4   1
     3    13     2  am
     4     4     3  ar
     5     3    12  ar
     6     4     5  ar
     7     5     6  ar
     8     6     7  ar
     9     7     8  ar
    10    12     7  ar
    11     8     9  ar
    12    10     9  ar
    13    11    10  ar
    14    12    11  ar
    15    14    13   1
    16    15    14   1
    17    14    17   1
    18    15    16   2
    19    24    15  am
    20    17    18   1
    21    18    19   2
    22    18    20  am
    23    21    22   1
    24    23    21   1
    25    21    33   1
    26    23    24   1
    27    23    25   1
    28    25    26   1
    29    26    27  ar
    30    26    28  ar
    31    27    29  ar
    32    28    30  ar
    33    29    31  ar
    34    30    31  ar
    35    33    32   1
    36    32    34   1
    37    32    44   1
    38    34    35   1
    39    34    37   1
    40    35    36   2
    41    35    45  am
    42    37    38   1
    43    38    39   1
    44    38    43   1
    45    39    40   1
    46    40    41   1
    47    41    42   1
    48    42    43   1
    49    43    44   1
    50    45    46   1
    51    46    47   1
    52    46    48   1
    53    46    49   1
    54     5    50   1
    55     6    51   1
    56     8    52   1
    57     9    53   1
    58    10    54   1
    59    11    55   1
    60    13    56   1
    61    14    57   1
    62    17    58   1
    63    17    59   1
    64    20    60   1
    65    20    61   1
    66    21    62   1
    67    22    63   1
    68    23    64   1
    69    24    65   1
    70    25    66   1
    71    25    67   1
    72    27    68   1
    73    28    69   1
    74    29    70   1
    75    30    71   1
    76    31    72   1
    77    32    73   1
    78    33    74   1
    79    33    75   1
    80    34    76   1
    81    37    77   1
    82    37    78   1
    83    38    79   1
    84    39    80   1
    85    39    81   1
    86    40    82   1
    87    40    83   1
    88    41    84   1
    89    41    85   1
    90    42    86   1
    91    42    87   1
    92    43    88   1
    93    44    89   1
    94    44    90   1
    95    45    91   1
    96    47    92   1
    97    47    93   1
    98    47    94   1
    99    48    95   1
   100    48    96   1
   101    48    97   1
   102    49    98   1
   103    49    99   1
   104    49   100   1
@<TRIPOS>SUBSTRUCTURE
     1  ROC      2

