@<TRIPOS>MOLECULE
3cyx_ligand_047
   100   104
SMALL
GAST_HUCK
****
This file was generated by PARSER (from files_GN.cpp)

@<TRIPOS>ATOM
      1 O1         16.9963   20.5240   20.4900 O.2         1 ROC      -0.3762
      2 C1         16.9781   21.6298   19.9601 C.2         1 ROC       0.2293
      3 N1         18.1163   23.5111   19.0664 N.ar        1 ROC      -0.2737
      4 C2         18.1667   22.3223   19.7312 C.ar        1 ROC       0.1219
      5 C3         19.4414   21.8270   20.0976 C.ar        1 ROC      -0.0136
      6 C4         20.5997   22.5531   19.7636 C.ar        1 ROC      -0.0314
      7 C5         20.4970   23.7768   19.0687 C.ar        1 ROC       0.0097
      8 C6         21.6281   24.5341   18.6911 C.ar        1 ROC      -0.0444
      9 C7         21.4691   25.7464   17.9920 C.ar        1 ROC      -0.0546
     10 C8         20.1792   26.2115   17.6652 C.ar        1 ROC      -0.0545
     11 C9R        19.0476   25.4641   18.0327 C.ar        1 ROC      -0.0370
     12 C10        19.2025   24.2502   18.7284 C.ar        1 ROC       0.0527
     13 N2         15.8333   22.1226   19.5058 N.am        1 ROC      -0.2600
     14 C11        14.5468   21.4697   19.4335 C.3         1 ROC       0.1473
     15 C12        14.5477   20.2600   18.6025 C.2         1 ROC       0.2045
     16 O2         15.5925   19.8859   18.0773 O.2         1 ROC      -0.3943
     17 C13        13.4594   22.5170   19.0235 C.3         1 ROC       0.0773
     18 C14        13.8342   23.4857   18.0034 C.2         1 ROC       0.1780
     19 O3         13.9369   23.1565   16.8321 O.2         1 ROC      -0.3970
     20 N3         14.0899   24.7377   18.3069 N.am        1 ROC      -0.3007
     21 C15        11.9514   17.6925   17.6663 C.3         1 ROC       0.1194
     22 O4         11.9368   16.3129   17.2775 O.3         1 ROC      -0.3840
     23 C16        13.4129   18.1409   18.0136 C.3         1 ROC       0.0823
     24 N4         13.4662   19.4850   18.5374 N.am        1 ROC      -0.2772
     25 C17        14.1531   17.1650   18.9815 C.3         1 ROC       0.0066
     26 C18        13.6776   17.1980   20.3949 C.ar        1 ROC      -0.0408
     27 C19        14.2158   18.1271   21.3166 C.ar        1 ROC      -0.0603
     28 C20        12.7009   16.2828   20.8544 C.ar        1 ROC      -0.0603
     29 C21        13.7877   18.1427   22.6574 C.ar        1 ROC      -0.0686
     30 C22        12.3136   16.2623   22.2061 C.ar        1 ROC      -0.0686
     31 C23        12.8547   17.1947   23.1095 C.ar        1 ROC      -0.0687
     32 N5         12.0775   19.0136   15.4334 N.4         1 ROC       0.2562
     33 C24        11.2059   18.5394   16.5853 C.3         1 ROC      -0.0008
     34 C25        11.7499   18.4760   14.0603 C.3         1 ROC       0.0688
     35 C26        11.7373   17.0096   14.0269 C.2         1 ROC       0.2251
     36 O5         12.8062   16.4129   14.0743 O.2         1 ROC      -0.3909
     37 C27        12.7586   19.0016   12.9749 C.3         1 ROC       0.0113
     38 C28        12.9243   20.5515   12.9877 C.3         1 ROC      -0.0261
     39 C29        13.9824   21.0929   11.9683 C.3         1 ROC      -0.0494
     40 C30        15.4568   20.9087   12.4199 C.3         1 ROC      -0.0528
     41 C31        15.6848   21.4404   13.8569 C.3         1 ROC      -0.0526
     42 C32        14.7002   20.7807   14.8516 C.3         1 ROC      -0.0451
     43 C33        13.2295   21.0695   14.4258 C.3         1 ROC       0.0024
     44 C34        12.1887   20.5112   15.4341 C.3         1 ROC      -0.0266
     45 N6         10.5897   16.3442   13.9468 N.am        1 ROC      -0.2771
     46 C35        10.3550   14.9166   13.8767 C.3         1 ROC       0.0448
     47 C36         8.9782   14.7452   13.1646 C.3         1 ROC      -0.0396
     48 C37        10.2762   14.2792   15.2964 C.3         1 ROC      -0.0396
     49 C38        11.4486   14.1958   13.0247 C.3         1 ROC      -0.0396
     50 H1         19.5402   20.9363   20.5896 H           1 ROC       0.0729
     51 H2         21.5159   22.1785   20.0177 H           1 ROC       0.0774
     52 H3         22.5725   24.2089   18.9182 H           1 ROC       0.0657
     53 H4         22.2903   26.2930   17.7233 H           1 ROC       0.0652
     54 H5         20.0686   27.0911   17.1565 H           1 ROC       0.0657
     55 H6         18.1133   25.8047   17.7862 H           1 ROC       0.0653
     56 H7         15.8795   23.0187   19.1328 H           1 ROC       0.1882
     57 H8         14.2982   21.1496   20.4488 H           1 ROC       0.0826
     58 H9         13.1836   23.0694   19.9247 H           1 ROC       0.0551
     59 H10        12.5521   22.0088   18.6917 H           1 ROC       0.0551
     60 H11        14.3383   25.3607   17.6111 H           1 ROC       0.1814
     61 H12        14.0111   25.0471   19.2205 H           1 ROC       0.1814
     62 H13        11.3601   17.7463   18.5844 H           1 ROC       0.0672
     63 H14        10.9941   16.0899   17.1437 H           1 ROC       0.2101
     64 H15        13.9853   18.1076   17.0864 H           1 ROC       0.0606
     65 H16        12.6796   19.7976   19.0098 H           1 ROC       0.1857
     66 H17        15.2215   17.4023   18.9620 H           1 ROC       0.0449
     67 H18        14.0819   16.1433   18.5959 H           1 ROC       0.0449
     68 H19        14.9285   18.7978   21.0190 H           1 ROC       0.0557
     69 H20        12.2777   15.6142   20.2074 H           1 ROC       0.0557
     70 H21        14.1635   18.8377   23.3061 H           1 ROC       0.0599
     71 H22        11.6372   15.5700   22.5282 H           1 ROC       0.0599
     72 H23        12.5640   17.1904   24.0892 H           1 ROC       0.0559
     73 H24        13.0149   18.6541   15.6203 H           1 ROC       0.2057
     74 H25        10.7441   19.3798   17.1144 H           1 ROC       0.0841
     75 H26        10.3579   17.9604   16.2101 H           1 ROC       0.0841
     76 H27        10.7580   18.8501   13.7829 H           1 ROC       0.1100
     77 H28        12.4051   18.6980   11.9863 H           1 ROC       0.0348
     78 H29        13.7374   18.5392   13.1247 H           1 ROC       0.0348
     79 H30        11.9601   20.9728   12.6886 H           1 ROC       0.0309
     80 H31        13.8096   22.1625   11.8229 H           1 ROC       0.0268
     81 H32        13.8422   20.6121   11.0002 H           1 ROC       0.0268
     82 H33        16.1180   21.4448   11.7338 H           1 ROC       0.0265
     83 H34        15.7279   19.8515   12.3794 H           1 ROC       0.0265
     84 H35        15.5494   22.5258   13.8727 H           1 ROC       0.0265
     85 H36        16.7065   21.2401   14.1767 H           1 ROC       0.0265
     86 H37        14.8884   21.1962   15.8400 H           1 ROC       0.0270
     87 H38        14.8911   19.7046   14.9016 H           1 ROC       0.0270
     88 H39        13.1034   22.1591   14.4207 H           1 ROC       0.0355
     89 H40        12.4699   20.8654   16.4271 H           1 ROC       0.0818
     90 H41        11.2133   20.9519   15.2040 H           1 ROC       0.0818
     91 H42         9.7922   16.8973   13.9137 H           1 ROC       0.1859
     92 H43         8.7211   13.6899   13.0520 H           1 ROC       0.0254
     93 H44         9.0006   15.1986   12.1699 H           1 ROC       0.0254
     94 H45         8.1871   15.2300   13.7398 H           1 ROC       0.0254
     95 H46        10.0218   13.2203   15.2321 H           1 ROC       0.0254
     96 H47         9.5160   14.7788   15.8961 H           1 ROC       0.0254
     97 H48        11.2314   14.3608   15.8122 H           1 ROC       0.0254
     98 H49        11.1751   13.1518   12.8439 H           1 ROC       0.0254
     99 H50        12.4144   14.1994   13.5358 H           1 ROC       0.0254
    100 H51        11.5727   14.6903   12.0567 H           1 ROC       0.0254
@<TRIPOS>BOND
     1     2     1   2
     2     2     4   1
     3    13     2  am
     4     4     3  ar
     5     3    12  ar
     6     4     5  ar
     7     5     6  ar
     8     6     7  ar
     9     7     8  ar
    10    12     7  ar
    11     8     9  ar
    12    10     9  ar
    13    11    10  ar
    14    12    11  ar
    15    14    13   1
    16    15    14   1
    17    14    17   1
    18    15    16   2
    19    24    15  am
    20    17    18   1
    21    18    19   2
    22    18    20  am
    23    21    22   1
    24    23    21   1
    25    21    33   1
    26    23    24   1
    27    23    25   1
    28    25    26   1
    29    26    27  ar
    30    26    28  ar
    31    27    29  ar
    32    28    30  ar
    33    29    31  ar
    34    30    31  ar
    35    33    32   1
    36    32    34   1
    37    32    44   1
    38    34    35   1
    39    34    37   1
    40    35    36   2
    41    35    45  am
    42    37    38   1
    43    38    39   1
    44    38    43   1
    45    39    40   1
    46    40    41   1
    47    41    42   1
    48    42    43   1
    49    43    44   1
    50    45    46   1
    51    46    47   1
    52    46    48   1
    53    46    49   1
    54     5    50   1
    55     6    51   1
    56     8    52   1
    57     9    53   1
    58    10    54   1
    59    11    55   1
    60    13    56   1
    61    14    57   1
    62    17    58   1
    63    17    59   1
    64    20    60   1
    65    20    61   1
    66    21    62   1
    67    22    63   1
    68    23    64   1
    69    24    65   1
    70    25    66   1
    71    25    67   1
    72    27    68   1
    73    28    69   1
    74    29    70   1
    75    30    71   1
    76    31    72   1
    77    32    73   1
    78    33    74   1
    79    33    75   1
    80    34    76   1
    81    37    77   1
    82    37    78   1
    83    38    79   1
    84    39    80   1
    85    39    81   1
    86    40    82   1
    87    40    83   1
    88    41    84   1
    89    41    85   1
    90    42    86   1
    91    42    87   1
    92    43    88   1
    93    44    89   1
    94    44    90   1
    95    45    91   1
    96    47    92   1
    97    47    93   1
    98    47    94   1
    99    48    95   1
   100    48    96   1
   101    48    97   1
   102    49    98   1
   103    49    99   1
   104    49   100   1
@<TRIPOS>SUBSTRUCTURE
     1  ROC      2

