@<TRIPOS>MOLECULE
3cyx_ligand_093
   100   104
SMALL
GAST_HUCK
****
This file was generated by PARSER (from files_GN.cpp)

@<TRIPOS>ATOM
      1 O1         11.9551   15.3762   15.6568 O.2         1 ROC      -0.3762
      2 C1         11.1358   16.1936   15.2460 C.2         1 ROC       0.2293
      3 N1          9.9977   17.2082   13.4224 N.ar        1 ROC      -0.2737
      4 C2         11.0655   16.5004   13.8895 C.ar        1 ROC       0.1219
      5 C3         12.0876   16.1653   12.9683 C.ar        1 ROC      -0.0136
      6 C4         11.9881   16.5859   11.6271 C.ar        1 ROC      -0.0314
      7 C5         10.8786   17.3427   11.1970 C.ar        1 ROC       0.0097
      8 C6         10.7607   17.8294    9.8766 C.ar        1 ROC      -0.0444
      9 C7          9.6483   18.6081    9.5062 C.ar        1 ROC      -0.0546
     10 C8          8.6379   18.8919   10.4477 C.ar        1 ROC      -0.0545
     11 C9R         8.7413   18.3973   11.7599 C.ar        1 ROC      -0.0370
     12 C10         9.8596   17.6333   12.1415 C.ar        1 ROC       0.0527
     13 N2         10.3316   16.8095   16.1076 N.am        1 ROC      -0.2600
     14 C11        10.2462   16.7103   17.5373 C.3         1 ROC       0.1473
     15 C12        10.9537   17.8308   18.1645 C.2         1 ROC       0.2045
     16 O2         10.2977   18.5880   18.8734 O.2         1 ROC      -0.3943
     17 C13        10.6001   15.3565   18.2355 C.3         1 ROC       0.0773
     18 C14         9.7230   14.2183   18.0104 C.2         1 ROC       0.1780
     19 O3          9.7605   13.2825   18.7989 O.2         1 ROC      -0.3970
     20 N3          8.8668   14.1187   17.0188 N.am        1 ROC      -0.3007
     21 C15        13.6172   20.0531   17.6328 C.3         1 ROC       0.1194
     22 O4         14.6923   19.5417   16.8362 O.3         1 ROC      -0.3840
     23 C16        13.0749   19.0237   18.6842 C.3         1 ROC       0.0823
     24 N4         12.2690   18.0161   18.0240 N.am        1 ROC      -0.2772
     25 C17        14.1991   18.3420   19.5291 C.3         1 ROC       0.0066
     26 C18        13.7203   17.8641   20.8543 C.ar        1 ROC      -0.0408
     27 C19        12.9651   16.6724   20.9676 C.ar        1 ROC      -0.0603
     28 C20        13.9822   18.6079   22.0319 C.ar        1 ROC      -0.0603
     29 C21        12.4970   16.2302   22.2156 C.ar        1 ROC      -0.0686
     30 C22        13.5079   18.1706   23.2805 C.ar        1 ROC      -0.0686
     31 C23        12.7713   16.9770   23.3764 C.ar        1 ROC      -0.0687
     32 N5         14.9639   22.2670   17.4047 N.4         1 ROC       0.2562
     33 C24        14.0213   21.4329   18.2479 C.3         1 ROC      -0.0008
     34 C25        14.3317   23.0828   16.2962 C.3         1 ROC       0.0688
     35 C26        13.4746   22.3083   15.3866 C.2         1 ROC       0.2251
     36 O5         13.9880   21.7656   14.4163 O.2         1 ROC      -0.3909
     37 C27        15.4250   23.8380   15.4631 C.3         1 ROC       0.0113
     38 C28        16.3905   24.6895   16.3427 C.3         1 ROC      -0.0261
     39 C29        17.5352   25.3707   15.5274 C.3         1 ROC      -0.0494
     40 C30        18.6686   24.3982   15.1027 C.3         1 ROC      -0.0528
     41 C31        19.2262   23.6056   16.3115 C.3         1 ROC      -0.0526
     42 C32        18.0998   22.8762   17.0860 C.3         1 ROC      -0.0451
     43 C33        16.9693   23.8571   17.5288 C.3         1 ROC       0.0024
     44 C34        15.8231   23.1333   18.2866 C.3         1 ROC      -0.0266
     45 N6         12.1802   22.1476   15.6570 N.am        1 ROC      -0.2771
     46 C35        11.1454   21.4804   14.8935 C.3         1 ROC       0.0448
     47 C36        11.0486   22.1138   13.4744 C.3         1 ROC      -0.0396
     48 C37         9.8062   21.7274   15.6575 C.3         1 ROC      -0.0396
     49 C38        11.3396   19.9369   14.7728 C.3         1 ROC      -0.0396
     50 H1         12.9197   15.6496   13.2674 H           1 ROC       0.0729
     51 H2         12.7453   16.3569   10.9751 H           1 ROC       0.0774
     52 H3         11.4825   17.6302    9.1786 H           1 ROC       0.0657
     53 H4          9.5731   18.9736    8.5540 H           1 ROC       0.0652
     54 H5          7.8322   19.4560   10.1751 H           1 ROC       0.0657
     55 H6          8.0037   18.6082   12.4402 H           1 ROC       0.0653
     56 H7          9.7206   17.4583   15.7102 H           1 ROC       0.1882
     57 H8          9.1763   16.8361   17.7313 H           1 ROC       0.0826
     58 H9         10.6048   15.5402   19.3175 H           1 ROC       0.0551
     59 H10        11.6175   15.0591   17.9676 H           1 ROC       0.0551
     60 H11         8.3325   13.3138   16.9248 H           1 ROC       0.1814
     61 H12         8.7776   14.8306   16.3659 H           1 ROC       0.1814
     62 H13        12.7966   20.2461   16.9365 H           1 ROC       0.0672
     63 H14        15.3314   19.1376   17.4632 H           1 ROC       0.2101
     64 H15        12.4517   19.5970   19.3818 H           1 ROC       0.0606
     65 H16        12.7378   17.4371   17.4013 H           1 ROC       0.1857
     66 H17        15.0147   19.0489   19.6897 H           1 ROC       0.0449
     67 H18        14.6382   17.5053   18.9757 H           1 ROC       0.0449
     68 H19        12.7670   16.1131   20.1363 H           1 ROC       0.0557
     69 H20        14.5174   19.4800   21.9839 H           1 ROC       0.0557
     70 H21        11.9537   15.3658   22.2804 H           1 ROC       0.0599
     71 H22        13.6968   18.7213   24.1212 H           1 ROC       0.0599
     72 H23        12.4339   16.6573   24.2859 H           1 ROC       0.0559
     73 H24        15.5996   21.6075   16.9539 H           1 ROC       0.2057
     74 H25        14.4748   21.2089   19.2172 H           1 ROC       0.0841
     75 H26        13.1162   22.0057   18.4750 H           1 ROC       0.0841
     76 H27        13.7132   23.8559   16.7695 H           1 ROC       0.1100
     77 H28        14.9353   24.5003   14.7410 H           1 ROC       0.0348
     78 H29        16.0147   23.1131   14.8984 H           1 ROC       0.0348
     79 H30        15.7917   25.4970   16.7757 H           1 ROC       0.0309
     80 H31        17.9786   26.1575   16.1444 H           1 ROC       0.0268
     81 H32        17.1214   25.8536   14.6391 H           1 ROC       0.0268
     82 H33        19.4814   24.9707   14.6478 H           1 ROC       0.0265
     83 H34        18.2979   23.6977   14.3492 H           1 ROC       0.0265
     84 H35        19.7443   24.2929   16.9861 H           1 ROC       0.0265
     85 H36        19.9563   22.8717   15.9606 H           1 ROC       0.0265
     86 H37        18.5384   22.4032   17.9701 H           1 ROC       0.0270
     87 H38        17.6886   22.0832   16.4559 H           1 ROC       0.0270
     88 H39        17.4198   24.5619   18.2374 H           1 ROC       0.0355
     89 H40        16.2881   22.5392   19.0796 H           1 ROC       0.0818
     90 H41        15.1924   23.8840   18.7760 H           1 ROC       0.0818
     91 H42        11.8783   22.5338   16.4954 H           1 ROC       0.1859
     92 H43        10.1853   21.7115   12.9377 H           1 ROC       0.0254
     93 H44        11.9490   21.9002   12.8937 H           1 ROC       0.0254
     94 H45        10.9347   23.1977   13.5392 H           1 ROC       0.0254
     95 H46         8.9697   21.2488   15.1405 H           1 ROC       0.0254
     96 H47         9.5911   22.7946   15.7378 H           1 ROC       0.0254
     97 H48         9.8605   21.3154   16.6704 H           1 ROC       0.0254
     98 H49        10.5289   19.5098   14.1776 H           1 ROC       0.0254
     99 H50        11.3306   19.4718   15.7615 H           1 ROC       0.0254
    100 H51        12.2778   19.6786   14.2822 H           1 ROC       0.0254
@<TRIPOS>BOND
     1     2     1   2
     2     2     4   1
     3    13     2  am
     4     4     3  ar
     5     3    12  ar
     6     4     5  ar
     7     5     6  ar
     8     6     7  ar
     9     7     8  ar
    10    12     7  ar
    11     8     9  ar
    12    10     9  ar
    13    11    10  ar
    14    12    11  ar
    15    14    13   1
    16    15    14   1
    17    14    17   1
    18    15    16   2
    19    24    15  am
    20    17    18   1
    21    18    19   2
    22    18    20  am
    23    21    22   1
    24    23    21   1
    25    21    33   1
    26    23    24   1
    27    23    25   1
    28    25    26   1
    29    26    27  ar
    30    26    28  ar
    31    27    29  ar
    32    28    30  ar
    33    29    31  ar
    34    30    31  ar
    35    33    32   1
    36    32    34   1
    37    32    44   1
    38    34    35   1
    39    34    37   1
    40    35    36   2
    41    35    45  am
    42    37    38   1
    43    38    39   1
    44    38    43   1
    45    39    40   1
    46    40    41   1
    47    41    42   1
    48    42    43   1
    49    43    44   1
    50    45    46   1
    51    46    47   1
    52    46    48   1
    53    46    49   1
    54     5    50   1
    55     6    51   1
    56     8    52   1
    57     9    53   1
    58    10    54   1
    59    11    55   1
    60    13    56   1
    61    14    57   1
    62    17    58   1
    63    17    59   1
    64    20    60   1
    65    20    61   1
    66    21    62   1
    67    22    63   1
    68    23    64   1
    69    24    65   1
    70    25    66   1
    71    25    67   1
    72    27    68   1
    73    28    69   1
    74    29    70   1
    75    30    71   1
    76    31    72   1
    77    32    73   1
    78    33    74   1
    79    33    75   1
    80    34    76   1
    81    37    77   1
    82    37    78   1
    83    38    79   1
    84    39    80   1
    85    39    81   1
    86    40    82   1
    87    40    83   1
    88    41    84   1
    89    41    85   1
    90    42    86   1
    91    42    87   1
    92    43    88   1
    93    44    89   1
    94    44    90   1
    95    45    91   1
    96    47    92   1
    97    47    93   1
    98    47    94   1
    99    48    95   1
   100    48    96   1
   101    48    97   1
   102    49    98   1
   103    49    99   1
   104    49   100   1
@<TRIPOS>SUBSTRUCTURE
     1  ROC      2

