@<TRIPOS>MOLECULE
3cyx_ligand_092
   100   104
SMALL
GAST_HUCK
****
This file was generated by PARSER (from files_GN.cpp)

@<TRIPOS>ATOM
      1 O1         21.4422   28.0350   18.5039 O.2         1 ROC      -0.3762
      2 C1         21.9762   26.9482   18.3110 C.2         1 ROC       0.2293
      3 N1         23.2572   25.1183   19.1347 N.ar        1 ROC      -0.2737
      4 C2         22.7678   26.3783   19.3077 C.ar        1 ROC       0.1219
      5 C3         23.0971   27.0525   20.5105 C.ar        1 ROC      -0.0136
      6 C4         23.8939   26.4183   21.4822 C.ar        1 ROC      -0.0314
      7 C5         24.3731   25.1097   21.2661 C.ar        1 ROC       0.0097
      8 C6         25.1678   24.4275   22.2134 C.ar        1 ROC      -0.0444
      9 C7         25.6170   23.1232   21.9453 C.ar        1 ROC      -0.0546
     10 C8         25.2824   22.4956   20.7339 C.ar        1 ROC      -0.0545
     11 C9R        24.4881   23.1617   19.7847 C.ar        1 ROC      -0.0370
     12 C10        24.0314   24.4663   20.0448 C.ar        1 ROC       0.0527
     13 N2         21.7672   26.3159   17.1572 N.am        1 ROC      -0.2600
     14 C11        20.9706   26.7800   16.0514 C.3         1 ROC       0.1473
     15 C12        19.6163   26.2437   16.1642 C.2         1 ROC       0.2045
     16 O2         18.6843   26.9315   15.7711 O.2         1 ROC      -0.3943
     17 C13        21.6620   26.3995   14.7081 C.3         1 ROC       0.0773
     18 C14        21.0746   27.0194   13.5243 C.2         1 ROC       0.1780
     19 O3         19.9254   26.7600   13.1796 O.2         1 ROC      -0.3970
     20 N3         21.7312   27.8824   12.7837 N.am        1 ROC      -0.3007
     21 C15        17.9502   23.4593   17.9056 C.3         1 ROC       0.1194
     22 O4         18.7378   22.2663   17.9629 O.3         1 ROC      -0.3840
     23 C16        18.1748   24.2554   16.5695 C.3         1 ROC       0.0823
     24 N4         19.4086   25.0106   16.6156 N.am        1 ROC      -0.2772
     25 C17        18.2836   23.3517   15.3064 C.3         1 ROC       0.0066
     26 C18        18.0507   24.0587   14.0142 C.ar        1 ROC      -0.0408
     27 C19        19.1241   24.4120   13.1546 C.ar        1 ROC      -0.0603
     28 C20        16.7326   24.3081   13.5538 C.ar        1 ROC      -0.0603
     29 C21        18.8819   24.8766   11.8496 C.ar        1 ROC      -0.0686
     30 C22        16.4834   24.7639   12.2507 C.ar        1 ROC      -0.0686
     31 C23        17.5613   25.0218   11.3854 C.ar        1 ROC      -0.0687
     32 N5         15.6963   22.1855   17.3907 N.4         1 ROC       0.2562
     33 C24        16.4674   23.1348   18.2971 C.3         1 ROC      -0.0008
     34 C25        14.6806   21.3058   18.0958 C.3         1 ROC       0.0688
     35 C26        15.2121   20.4615   19.1685 C.2         1 ROC       0.2251
     36 O5         16.4009   20.1698   19.1587 O.2         1 ROC      -0.3909
     37 C27        13.9483   20.3472   17.0972 C.3         1 ROC       0.0113
     38 C28        13.3085   21.0909   15.8921 C.3         1 ROC      -0.0261
     39 C29        12.6244   20.1274   14.8744 C.3         1 ROC      -0.0494
     40 C30        13.6276   19.3381   13.9961 C.3         1 ROC      -0.0528
     41 C31        14.6401   20.2783   13.2988 C.3         1 ROC      -0.0526
     42 C32        15.3594   21.2046   14.3087 C.3         1 ROC      -0.0451
     43 C33        14.3494   22.0105   15.1886 C.3         1 ROC       0.0024
     44 C34        15.0413   22.9189   16.2487 C.3         1 ROC      -0.0266
     45 N6         14.3339   19.8858   19.9847 N.am        1 ROC      -0.2771
     46 C35        14.4489   18.8281   20.9654 C.3         1 ROC       0.0448
     47 C36        15.8685   18.2249   21.1760 C.3         1 ROC      -0.0396
     48 C37        13.4842   17.6973   20.4835 C.3         1 ROC      -0.0396
     49 C38        13.9258   19.4161   22.3098 C.3         1 ROC      -0.0396
     50 H1         22.7690   28.0072   20.6864 H           1 ROC       0.0729
     51 H2         24.1231   26.9194   22.3446 H           1 ROC       0.0774
     52 H3         25.4142   24.8738   23.1052 H           1 ROC       0.0657
     53 H4         26.1889   22.6292   22.6375 H           1 ROC       0.0652
     54 H5         25.6144   21.5454   20.5410 H           1 ROC       0.0657
     55 H6         24.2433   22.7000   18.9032 H           1 ROC       0.0653
     56 H7         22.1729   25.4380   17.0505 H           1 ROC       0.1882
     57 H8         20.9401   27.8754   16.0633 H           1 ROC       0.0826
     58 H9         21.6514   25.3170   14.5794 H           1 ROC       0.0551
     59 H10        22.7171   26.6930   14.7767 H           1 ROC       0.0551
     60 H11        21.3064   28.2670   11.9976 H           1 ROC       0.1814
     61 H12        22.5898   28.2241   13.0792 H           1 ROC       0.1814
     62 H13        18.3225   24.0959   18.7161 H           1 ROC       0.0672
     63 H14        19.6531   22.5806   18.1341 H           1 ROC       0.2101
     64 H15        17.3187   24.9267   16.4505 H           1 ROC       0.0606
     65 H16        20.1915   24.5305   16.9274 H           1 ROC       0.1857
     66 H17        17.5625   22.5318   15.3656 H           1 ROC       0.0449
     67 H18        19.2671   22.8737   15.3064 H           1 ROC       0.0449
     68 H19        20.0898   24.2908   13.4579 H           1 ROC       0.0557
     69 H20        15.9389   24.1290   14.1648 H           1 ROC       0.0557
     70 H21        19.6608   25.0716   11.2162 H           1 ROC       0.0599
     71 H22        15.5249   24.8855   11.9206 H           1 ROC       0.0599
     72 H23        17.3784   25.3060   10.4246 H           1 ROC       0.0559
     73 H24        16.3830   21.5497   16.9812 H           1 ROC       0.2057
     74 H25        15.9387   24.0870   18.4080 H           1 ROC       0.0841
     75 H26        16.5117   22.7310   19.3127 H           1 ROC       0.0841
     76 H27        13.9288   21.9728   18.5415 H           1 ROC       0.1100
     77 H28        13.1527   19.8098   17.6212 H           1 ROC       0.0348
     78 H29        14.6598   19.6018   16.7318 H           1 ROC       0.0348
     79 H30        12.5204   21.7373   16.2994 H           1 ROC       0.0309
     80 H31        11.9828   20.7188   14.2147 H           1 ROC       0.0268
     81 H32        11.9783   19.4234   15.4059 H           1 ROC       0.0268
     82 H33        13.0755   18.7676   13.2445 H           1 ROC       0.0265
     83 H34        14.1741   18.6199   14.6118 H           1 ROC       0.0265
     84 H35        14.1152   20.8933   12.5578 H           1 ROC       0.0265
     85 H36        15.3841   19.6776   12.7661 H           1 ROC       0.0265
     86 H37        15.9930   21.8960   13.7445 H           1 ROC       0.0270
     87 H38        16.0139   20.6008   14.9444 H           1 ROC       0.0270
     88 H39        13.8051   22.6720   14.5090 H           1 ROC       0.0355
     89 H40        15.7721   23.5290   15.7233 H           1 ROC       0.0818
     90 H41        14.2961   23.6163   16.6468 H           1 ROC       0.0818
     91 H42        13.4217   20.1910   19.8596 H           1 ROC       0.1859
     92 H43        15.8441   17.4302   21.9294 H           1 ROC       0.0254
     93 H44        16.5653   19.0002   21.5139 H           1 ROC       0.0254
     94 H45        16.2407   17.7919   20.2413 H           1 ROC       0.0254
     95 H46        13.4491   16.8833   21.2157 H           1 ROC       0.0254
     96 H47        13.8295   17.2875   19.5291 H           1 ROC       0.0254
     97 H48        12.4689   18.0791   20.3459 H           1 ROC       0.0254
     98 H49        13.8436   18.6313   23.0680 H           1 ROC       0.0254
     99 H50        12.9379   19.8670   22.1858 H           1 ROC       0.0254
    100 H51        14.6111   20.1844   22.6804 H           1 ROC       0.0254
@<TRIPOS>BOND
     1     2     1   2
     2     2     4   1
     3    13     2  am
     4     4     3  ar
     5     3    12  ar
     6     4     5  ar
     7     5     6  ar
     8     6     7  ar
     9     7     8  ar
    10    12     7  ar
    11     8     9  ar
    12    10     9  ar
    13    11    10  ar
    14    12    11  ar
    15    14    13   1
    16    15    14   1
    17    14    17   1
    18    15    16   2
    19    24    15  am
    20    17    18   1
    21    18    19   2
    22    18    20  am
    23    21    22   1
    24    23    21   1
    25    21    33   1
    26    23    24   1
    27    23    25   1
    28    25    26   1
    29    26    27  ar
    30    26    28  ar
    31    27    29  ar
    32    28    30  ar
    33    29    31  ar
    34    30    31  ar
    35    33    32   1
    36    32    34   1
    37    32    44   1
    38    34    35   1
    39    34    37   1
    40    35    36   2
    41    35    45  am
    42    37    38   1
    43    38    39   1
    44    38    43   1
    45    39    40   1
    46    40    41   1
    47    41    42   1
    48    42    43   1
    49    43    44   1
    50    45    46   1
    51    46    47   1
    52    46    48   1
    53    46    49   1
    54     5    50   1
    55     6    51   1
    56     8    52   1
    57     9    53   1
    58    10    54   1
    59    11    55   1
    60    13    56   1
    61    14    57   1
    62    17    58   1
    63    17    59   1
    64    20    60   1
    65    20    61   1
    66    21    62   1
    67    22    63   1
    68    23    64   1
    69    24    65   1
    70    25    66   1
    71    25    67   1
    72    27    68   1
    73    28    69   1
    74    29    70   1
    75    30    71   1
    76    31    72   1
    77    32    73   1
    78    33    74   1
    79    33    75   1
    80    34    76   1
    81    37    77   1
    82    37    78   1
    83    38    79   1
    84    39    80   1
    85    39    81   1
    86    40    82   1
    87    40    83   1
    88    41    84   1
    89    41    85   1
    90    42    86   1
    91    42    87   1
    92    43    88   1
    93    44    89   1
    94    44    90   1
    95    45    91   1
    96    47    92   1
    97    47    93   1
    98    47    94   1
    99    48    95   1
   100    48    96   1
   101    48    97   1
   102    49    98   1
   103    49    99   1
   104    49   100   1
@<TRIPOS>SUBSTRUCTURE
     1  ROC      2

