@<TRIPOS>MOLECULE
3cyx_ligand_044
   100   104
SMALL
GAST_HUCK
****
This file was generated by PARSER (from files_GN.cpp)

@<TRIPOS>ATOM
      1 O1         16.8138   20.6207   16.6721 O.2         1 ROC      -0.3762
      2 C1         15.9971   21.4292   16.2487 C.2         1 ROC       0.2293
      3 N1         13.8873   21.7856   15.1956 N.ar        1 ROC      -0.2737
      4 C2         14.6956   21.0129   15.9760 C.ar        1 ROC       0.1219
      5 C3         14.1604   19.8039   16.4844 C.ar        1 ROC      -0.0136
      6 C4         12.8231   19.4588   16.2162 C.ar        1 ROC      -0.0314
      7 C5         12.0212   20.2921   15.4118 C.ar        1 ROC       0.0097
      8 C6         10.6767   19.9799   15.1088 C.ar        1 ROC      -0.0444
      9 C7          9.9291   20.8198   14.2653 C.ar        1 ROC      -0.0546
     10 C8         10.5137   21.9773   13.7198 C.ar        1 ROC      -0.0545
     11 C9R        11.8456   22.3111   14.0337 C.ar        1 ROC      -0.0370
     12 C10        12.6012   21.4753   14.8808 C.ar        1 ROC       0.0527
     13 N2         16.3527   22.6971   16.0750 N.am        1 ROC      -0.2600
     14 C11        17.6665   23.2681   16.2521 C.3         1 ROC       0.1473
     15 C12        18.1126   23.1691   17.6457 C.2         1 ROC       0.2045
     16 O2         18.7280   22.1673   17.9934 O.2         1 ROC      -0.3943
     17 C13        17.6720   24.7405   15.7289 C.3         1 ROC       0.0773
     18 C14        17.3264   24.8660   14.3281 C.2         1 ROC       0.1780
     19 O3         18.0273   24.3549   13.4685 O.2         1 ROC      -0.3970
     20 N3         16.2634   25.5390   13.9507 N.am        1 ROC      -0.3007
     21 C15        19.4613   24.1202   20.3760 C.3         1 ROC       0.1194
     22 O4         19.5401   24.2407   21.7998 O.3         1 ROC      -0.3840
     23 C16        17.9518   24.1197   19.9473 C.3         1 ROC       0.0823
     24 N4         17.7759   24.1075   18.5280 N.am        1 ROC      -0.2772
     25 C17        17.1203   22.9792   20.6299 C.3         1 ROC       0.0066
     26 C18        15.8427   22.5016   20.0120 C.ar        1 ROC      -0.0408
     27 C19        15.0244   23.3168   19.1879 C.ar        1 ROC      -0.0603
     28 C20        15.3984   21.1849   20.2917 C.ar        1 ROC      -0.0603
     29 C21        13.8333   22.8150   18.6278 C.ar        1 ROC      -0.0686
     30 C22        14.2004   20.6876   19.7476 C.ar        1 ROC      -0.0686
     31 C23        13.4188   21.5019   18.9099 C.ar        1 ROC      -0.0687
     32 N5         21.8158   24.8836   19.4858 N.4         1 ROC       0.2562
     33 C24        20.3700   25.2380   19.7556 C.3         1 ROC      -0.0008
     34 C25        22.6361   26.0475   18.9616 C.3         1 ROC       0.0688
     35 C26        22.0819   26.7751   17.8066 C.2         1 ROC       0.2251
     36 O5         21.6609   27.9115   17.9864 O.2         1 ROC      -0.3909
     37 C27        24.1023   25.6093   18.6151 C.3         1 ROC       0.0113
     38 C28        24.8143   24.8458   19.7722 C.3         1 ROC      -0.0261
     39 C29        26.2295   24.3106   19.3728 C.3         1 ROC      -0.0494
     40 C30        26.1853   23.0719   18.4375 C.3         1 ROC      -0.0528
     41 C31        25.2828   21.9490   19.0115 C.3         1 ROC      -0.0526
     42 C32        23.8682   22.4653   19.3782 C.3         1 ROC      -0.0451
     43 C33        23.9231   23.6976   20.3330 C.3         1 ROC       0.0024
     44 C34        22.5053   24.2419   20.6665 C.3         1 ROC      -0.0266
     45 N6         22.1178   26.2515   16.5807 N.am        1 ROC      -0.2771
     46 C35        22.0227   26.8951   15.2848 C.3         1 ROC       0.0448
     47 C36        21.1331   28.1809   15.2242 C.3         1 ROC      -0.0396
     48 C37        21.4304   25.8374   14.3000 C.3         1 ROC      -0.0396
     49 C38        23.4698   27.2370   14.8148 C.3         1 ROC      -0.0396
     50 H1         14.7216   19.1845   17.0733 H           1 ROC       0.0729
     51 H2         12.4393   18.5960   16.6129 H           1 ROC       0.0774
     52 H3         10.2382   19.1412   15.4954 H           1 ROC       0.0657
     53 H4          8.9579   20.5879   14.0484 H           1 ROC       0.0652
     54 H5          9.9654   22.5833   13.1044 H           1 ROC       0.0657
     55 H6         12.2604   23.1575   13.6365 H           1 ROC       0.0653
     56 H7         15.6617   23.2975   15.7552 H           1 ROC       0.1882
     57 H8         18.3724   22.7056   15.6285 H           1 ROC       0.0826
     58 H9         18.6654   25.1752   15.8797 H           1 ROC       0.0551
     59 H10        16.9664   25.3399   16.3177 H           1 ROC       0.0551
     60 H11        16.0520   25.6134   13.0072 H           1 ROC       0.1814
     61 H12        15.6903   25.9649   14.6141 H           1 ROC       0.1814
     62 H13        19.8823   23.1522   20.1012 H           1 ROC       0.0672
     63 H14        19.2262   23.3825   22.1617 H           1 ROC       0.2101
     64 H15        17.5282   25.0685   20.2848 H           1 ROC       0.0606
     65 H16        17.3030   24.8748   18.1793 H           1 ROC       0.1857
     66 H17        16.8772   23.3025   21.6480 H           1 ROC       0.0449
     67 H18        17.7852   22.1160   20.7279 H           1 ROC       0.0449
     68 H19        15.2836   24.2823   18.9858 H           1 ROC       0.0557
     69 H20        15.9474   20.5712   20.9003 H           1 ROC       0.0557
     70 H21        13.2704   23.4065   18.0119 H           1 ROC       0.0599
     71 H22        13.9010   19.7347   19.9542 H           1 ROC       0.0599
     72 H23        12.5504   21.1413   18.5093 H           1 ROC       0.0559
     73 H24        21.8004   24.1843   18.7400 H           1 ROC       0.2057
     74 H25        20.3204   26.1234   20.3990 H           1 ROC       0.0841
     75 H26        19.9310   25.5242   18.7976 H           1 ROC       0.0841
     76 H27        22.7236   26.7667   19.7866 H           1 ROC       0.1100
     77 H28        24.6952   26.4984   18.3732 H           1 ROC       0.0348
     78 H29        24.0883   24.9704   17.7296 H           1 ROC       0.0348
     79 H30        24.9699   25.5691   20.5818 H           1 ROC       0.0309
     80 H31        26.7706   24.0326   20.2833 H           1 ROC       0.0268
     81 H32        26.8029   25.1067   18.8880 H           1 ROC       0.0268
     82 H33        27.2000   22.6852   18.3050 H           1 ROC       0.0265
     83 H34        25.8178   23.3678   17.4513 H           1 ROC       0.0265
     84 H35        25.7558   21.5258   19.9032 H           1 ROC       0.0265
     85 H36        25.1910   21.1504   18.2694 H           1 ROC       0.0265
     86 H37        23.3122   21.6518   19.8534 H           1 ROC       0.0270
     87 H38        23.3441   22.7310   18.4591 H           1 ROC       0.0270
     88 H39        24.3627   23.3551   21.2757 H           1 ROC       0.0355
     89 H40        21.9399   23.3908   21.0460 H           1 ROC       0.0818
     90 H41        22.5771   24.9659   21.4865 H           1 ROC       0.0818
     91 H42        22.4579   25.3467   16.5419 H           1 ROC       0.1859
     92 H43        20.9672   28.4916   14.1885 H           1 ROC       0.0254
     93 H44        21.6130   29.0170   15.7355 H           1 ROC       0.0254
     94 H45        20.1610   27.9996   15.6859 H           1 ROC       0.0254
     95 H46        21.3312   26.2524   13.2936 H           1 ROC       0.0254
     96 H47        20.4430   25.5118   14.6327 H           1 ROC       0.0254
     97 H48        22.0751   24.9559   14.2339 H           1 ROC       0.0254
     98 H49        23.4618   27.6271   13.7949 H           1 ROC       0.0254
     99 H50        24.1049   26.3487   14.8280 H           1 ROC       0.0254
    100 H51        23.9206   27.9853   15.4689 H           1 ROC       0.0254
@<TRIPOS>BOND
     1     2     1   2
     2     2     4   1
     3    13     2  am
     4     4     3  ar
     5     3    12  ar
     6     4     5  ar
     7     5     6  ar
     8     6     7  ar
     9     7     8  ar
    10    12     7  ar
    11     8     9  ar
    12    10     9  ar
    13    11    10  ar
    14    12    11  ar
    15    14    13   1
    16    15    14   1
    17    14    17   1
    18    15    16   2
    19    24    15  am
    20    17    18   1
    21    18    19   2
    22    18    20  am
    23    21    22   1
    24    23    21   1
    25    21    33   1
    26    23    24   1
    27    23    25   1
    28    25    26   1
    29    26    27  ar
    30    26    28  ar
    31    27    29  ar
    32    28    30  ar
    33    29    31  ar
    34    30    31  ar
    35    33    32   1
    36    32    34   1
    37    32    44   1
    38    34    35   1
    39    34    37   1
    40    35    36   2
    41    35    45  am
    42    37    38   1
    43    38    39   1
    44    38    43   1
    45    39    40   1
    46    40    41   1
    47    41    42   1
    48    42    43   1
    49    43    44   1
    50    45    46   1
    51    46    47   1
    52    46    48   1
    53    46    49   1
    54     5    50   1
    55     6    51   1
    56     8    52   1
    57     9    53   1
    58    10    54   1
    59    11    55   1
    60    13    56   1
    61    14    57   1
    62    17    58   1
    63    17    59   1
    64    20    60   1
    65    20    61   1
    66    21    62   1
    67    22    63   1
    68    23    64   1
    69    24    65   1
    70    25    66   1
    71    25    67   1
    72    27    68   1
    73    28    69   1
    74    29    70   1
    75    30    71   1
    76    31    72   1
    77    32    73   1
    78    33    74   1
    79    33    75   1
    80    34    76   1
    81    37    77   1
    82    37    78   1
    83    38    79   1
    84    39    80   1
    85    39    81   1
    86    40    82   1
    87    40    83   1
    88    41    84   1
    89    41    85   1
    90    42    86   1
    91    42    87   1
    92    43    88   1
    93    44    89   1
    94    44    90   1
    95    45    91   1
    96    47    92   1
    97    47    93   1
    98    47    94   1
    99    48    95   1
   100    48    96   1
   101    48    97   1
   102    49    98   1
   103    49    99   1
   104    49   100   1
@<TRIPOS>SUBSTRUCTURE
     1  ROC      2

