@<TRIPOS>MOLECULE
3cyx_ligand_078
   100   104
SMALL
GAST_HUCK
****
This file was generated by PARSER (from files_GN.cpp)

@<TRIPOS>ATOM
      1 O1         20.7241   22.2160   19.7825 O.2         1 ROC      -0.3762
      2 C1         20.4301   23.2862   19.2757 C.2         1 ROC       0.2293
      3 N1         20.9996   25.2061   18.0059 N.ar        1 ROC      -0.2737
      4 C2         21.3961   24.1057   18.7003 C.ar        1 ROC       0.1219
      5 C3         22.7911   23.8712   18.8117 C.ar        1 ROC      -0.0136
      6 C4         23.7042   24.7829   18.2452 C.ar        1 ROC      -0.0314
      7 C5         23.2394   25.9181   17.5502 C.ar        1 ROC       0.0097
      8 C6         24.1125   26.8728   16.9755 C.ar        1 ROC      -0.0444
      9 C7         23.5913   27.9905   16.2986 C.ar        1 ROC      -0.0546
     10 C8         22.1986   28.1613   16.1758 C.ar        1 ROC      -0.0545
     11 C9R        21.3220   27.2127   16.7362 C.ar        1 ROC      -0.0370
     12 C10        21.8398   26.1053   17.4282 C.ar        1 ROC       0.0527
     13 N2         19.1607   23.7043   19.2931 N.am        1 ROC      -0.2600
     14 C11        17.9919   23.0500   19.8165 C.3         1 ROC       0.1473
     15 C12        17.5472   21.8983   19.0104 C.2         1 ROC       0.2045
     16 O2         18.3315   21.4146   18.2067 O.2         1 ROC      -0.3943
     17 C13        16.9176   24.1598   20.0953 C.3         1 ROC       0.0773
     18 C14        16.4159   24.9602   18.9964 C.2         1 ROC       0.1780
     19 O3         17.1979   25.5370   18.2201 O.2         1 ROC      -0.3970
     20 N3         15.1413   25.1705   18.8031 N.am        1 ROC      -0.3007
     21 C15        14.4474   20.3302   17.9930 C.3         1 ROC       0.1194
     22 O4         13.5434   19.2587   18.2871 O.3         1 ROC      -0.3840
     23 C16        15.8990   20.0806   18.5654 C.3         1 ROC       0.0823
     24 N4         16.4018   21.2619   19.2458 N.am        1 ROC      -0.2772
     25 C17        16.0989   18.8514   19.5249 C.3         1 ROC       0.0066
     26 C18        15.0719   18.5683   20.5647 C.ar        1 ROC      -0.0408
     27 C19        14.8415   19.4843   21.6370 C.ar        1 ROC      -0.0603
     28 C20        14.2959   17.3922   20.5163 C.ar        1 ROC      -0.0603
     29 C21        13.8493   19.2179   22.5909 C.ar        1 ROC      -0.0686
     30 C22        13.2954   17.1310   21.4667 C.ar        1 ROC      -0.0686
     31 C23        13.0737   18.0522   22.5154 C.ar        1 ROC      -0.0687
     32 N5         15.0739   21.5623   15.6460 N.4         1 ROC       0.2562
     33 C24        14.3066   20.5374   16.4480 C.3         1 ROC      -0.0008
     34 C25        14.5763   21.7541   14.2171 C.3         1 ROC       0.0688
     35 C26        14.3984   20.5113   13.4442 C.2         1 ROC       0.2251
     36 O5         15.1682   20.2597   12.5102 O.2         1 ROC      -0.3909
     37 C27        15.4783   22.7879   13.4528 C.3         1 ROC       0.0113
     38 C28        15.6198   24.1450   14.2048 C.3         1 ROC      -0.0261
     39 C29        16.5232   25.1963   13.4874 C.3         1 ROC      -0.0494
     40 C30        18.0374   24.8800   13.5844 C.3         1 ROC      -0.0528
     41 C31        18.4847   24.6254   15.0466 C.3         1 ROC      -0.0526
     42 C32        17.6094   23.5488   15.7370 C.3         1 ROC      -0.0451
     43 C33        16.0945   23.9108   15.6655 C.3         1 ROC       0.0024
     44 C34        15.1631   22.8791   16.3620 C.3         1 ROC      -0.0266
     45 N6         13.3689   19.7151   13.6812 N.am        1 ROC      -0.2771
     46 C35        12.9441   18.4746   13.0632 C.3         1 ROC       0.0448
     47 C36        12.0197   17.7696   14.1010 C.3         1 ROC      -0.0396
     48 C37        14.1061   17.4844   12.7171 C.3         1 ROC      -0.0396
     49 C38        12.1179   18.8187   11.7950 C.3         1 ROC      -0.0396
     50 H1         23.1497   23.0584   19.3168 H           1 ROC       0.0729
     51 H2         24.7081   24.6128   18.3451 H           1 ROC       0.0774
     52 H3         25.1265   26.7617   17.0536 H           1 ROC       0.0657
     53 H4         24.2255   28.6835   15.8923 H           1 ROC       0.0652
     54 H5         21.8236   28.9756   15.6842 H           1 ROC       0.0657
     55 H6         20.3103   27.3425   16.6437 H           1 ROC       0.0653
     56 H7         19.0267   24.5855   18.9204 H           1 ROC       0.1882
     57 H8         18.2481   22.6400   20.7974 H           1 ROC       0.0826
     58 H9         17.3490   24.8577   20.8214 H           1 ROC       0.0551
     59 H10        16.0722   23.6913   20.6069 H           1 ROC       0.0551
     60 H11        14.8150   25.7675   18.1145 H           1 ROC       0.1814
     61 H12        14.5104   24.7927   19.4346 H           1 ROC       0.1814
     62 H13        14.0146   21.1986   18.4980 H           1 ROC       0.0672
     63 H14        13.8324   18.4993   17.7343 H           1 ROC       0.2101
     64 H15        16.5305   19.8710   17.6943 H           1 ROC       0.0606
     65 H16        15.8466   21.6059   19.9619 H           1 ROC       0.1857
     66 H17        17.0516   18.9689   20.0460 H           1 ROC       0.0449
     67 H18        16.2213   17.9673   18.8877 H           1 ROC       0.0449
     68 H19        15.3953   20.3336   21.7126 H           1 ROC       0.0557
     69 H20        14.4353   16.7076   19.7630 H           1 ROC       0.0557
     70 H21        13.6932   19.8807   23.3598 H           1 ROC       0.0599
     71 H22        12.7345   16.2824   21.4092 H           1 ROC       0.0599
     72 H23        12.3542   17.8581   23.2122 H           1 ROC       0.0559
     73 H24        16.0296   21.2080   15.5730 H           1 ROC       0.2057
     74 H25        13.2415   20.7245   16.2833 H           1 ROC       0.0841
     75 H26        14.5474   19.5677   16.0052 H           1 ROC       0.0841
     76 H27        13.5788   22.2095   14.2585 H           1 ROC       0.1100
     77 H28        15.0456   22.9869   12.4669 H           1 ROC       0.0348
     78 H29        16.4665   22.3490   13.2940 H           1 ROC       0.0348
     79 H30        14.6182   24.5831   14.2631 H           1 ROC       0.0309
     80 H31        16.3513   26.1785   13.9393 H           1 ROC       0.0268
     81 H32        16.2376   25.2712   12.4364 H           1 ROC       0.0268
     82 H33        18.6074   25.7187   13.1778 H           1 ROC       0.0265
     83 H34        18.2647   24.0026   12.9777 H           1 ROC       0.0265
     84 H35        18.4211   25.5609   15.6120 H           1 ROC       0.0265
     85 H36        19.5290   24.3023   15.0571 H           1 ROC       0.0265
     86 H37        17.9255   23.4803   16.7747 H           1 ROC       0.0270
     87 H38        17.7896   22.5754   15.2762 H           1 ROC       0.0270
     88 H39        15.9675   24.8596   16.1951 H           1 ROC       0.0355
     89 H40        15.5503   22.7426   17.3645 H           1 ROC       0.0818
     90 H41        14.1636   23.3165   16.4703 H           1 ROC       0.0818
     91 H42        12.7732   20.0271   14.3829 H           1 ROC       0.1859
     92 H43        11.6417   16.8228   13.7140 H           1 ROC       0.0254
     93 H44        11.1633   18.3951   14.3549 H           1 ROC       0.0254
     94 H45        12.5642   17.5649   15.0220 H           1 ROC       0.0254
     95 H46        13.7120   16.5096   12.4216 H           1 ROC       0.0254
     96 H47        14.7627   17.3458   13.5785 H           1 ROC       0.0254
     97 H48        14.7059   17.8406   11.8817 H           1 ROC       0.0254
     98 H49        11.7863   17.9133   11.2847 H           1 ROC       0.0254
     99 H50        12.7098   19.4119   11.0984 H           1 ROC       0.0254
    100 H51        11.2339   19.3975   12.0641 H           1 ROC       0.0254
@<TRIPOS>BOND
     1     2     1   2
     2     2     4   1
     3    13     2  am
     4     4     3  ar
     5     3    12  ar
     6     4     5  ar
     7     5     6  ar
     8     6     7  ar
     9     7     8  ar
    10    12     7  ar
    11     8     9  ar
    12    10     9  ar
    13    11    10  ar
    14    12    11  ar
    15    14    13   1
    16    15    14   1
    17    14    17   1
    18    15    16   2
    19    24    15  am
    20    17    18   1
    21    18    19   2
    22    18    20  am
    23    21    22   1
    24    23    21   1
    25    21    33   1
    26    23    24   1
    27    23    25   1
    28    25    26   1
    29    26    27  ar
    30    26    28  ar
    31    27    29  ar
    32    28    30  ar
    33    29    31  ar
    34    30    31  ar
    35    33    32   1
    36    32    34   1
    37    32    44   1
    38    34    35   1
    39    34    37   1
    40    35    36   2
    41    35    45  am
    42    37    38   1
    43    38    39   1
    44    38    43   1
    45    39    40   1
    46    40    41   1
    47    41    42   1
    48    42    43   1
    49    43    44   1
    50    45    46   1
    51    46    47   1
    52    46    48   1
    53    46    49   1
    54     5    50   1
    55     6    51   1
    56     8    52   1
    57     9    53   1
    58    10    54   1
    59    11    55   1
    60    13    56   1
    61    14    57   1
    62    17    58   1
    63    17    59   1
    64    20    60   1
    65    20    61   1
    66    21    62   1
    67    22    63   1
    68    23    64   1
    69    24    65   1
    70    25    66   1
    71    25    67   1
    72    27    68   1
    73    28    69   1
    74    29    70   1
    75    30    71   1
    76    31    72   1
    77    32    73   1
    78    33    74   1
    79    33    75   1
    80    34    76   1
    81    37    77   1
    82    37    78   1
    83    38    79   1
    84    39    80   1
    85    39    81   1
    86    40    82   1
    87    40    83   1
    88    41    84   1
    89    41    85   1
    90    42    86   1
    91    42    87   1
    92    43    88   1
    93    44    89   1
    94    44    90   1
    95    45    91   1
    96    47    92   1
    97    47    93   1
    98    47    94   1
    99    48    95   1
   100    48    96   1
   101    48    97   1
   102    49    98   1
   103    49    99   1
   104    49   100   1
@<TRIPOS>SUBSTRUCTURE
     1  ROC      2

