@<TRIPOS>MOLECULE
3cyx_ligand_012
   100   104
SMALL
GAST_HUCK
****
This file was generated by PARSER (from files_GN.cpp)

@<TRIPOS>ATOM
      1 O1          9.8334   19.4020   17.2036 O.2         1 ROC      -0.3762
      2 C1          9.9923   18.3477   16.6031 C.2         1 ROC       0.2293
      3 N1          9.6548   17.0318   14.6518 N.ar        1 ROC      -0.2737
      4 C2          9.7308   18.2664   15.2446 C.ar        1 ROC       0.1219
      5 C3          9.5571   19.4027   14.4135 C.ar        1 ROC      -0.0136
      6 C4          9.3614   19.2320   13.0276 C.ar        1 ROC      -0.0314
      7 C5          9.2895   17.9423   12.4610 C.ar        1 ROC       0.0097
      8 C6          9.1000   17.7342   11.0805 C.ar        1 ROC      -0.0444
      9 C7          9.0175   16.4192   10.5636 C.ar        1 ROC      -0.0546
     10 C8          9.1431   15.3231   11.4290 C.ar        1 ROC      -0.0545
     11 C9R         9.3456   15.5212   12.8052 C.ar        1 ROC      -0.0370
     12 C10         9.4296   16.8260   13.3292 C.ar        1 ROC       0.0527
     13 N2         10.4452   17.2784   17.2661 N.am        1 ROC      -0.2600
     14 C11        10.6559   17.1529   18.6763 C.3         1 ROC       0.1473
     15 C12        11.3637   18.2970   19.2494 C.2         1 ROC       0.2045
     16 O2         10.9119   18.7826   20.2923 O.2         1 ROC      -0.3943
     17 C13        11.4292   15.8318   19.0047 C.3         1 ROC       0.0773
     18 C14        10.7829   14.6388   18.4971 C.2         1 ROC       0.1780
     19 O3         11.2439   14.0528   17.5200 O.2         1 ROC      -0.3970
     20 N3          9.7233   14.1289   19.0843 N.am        1 ROC      -0.3007
     21 C15        13.5337   20.9317   18.0048 C.3         1 ROC       0.1194
     22 O4         12.3865   21.0423   17.1432 O.3         1 ROC      -0.3840
     23 C16        13.2076   19.9446   19.1771 C.3         1 ROC       0.0823
     24 N4         12.4835   18.7776   18.7154 N.am        1 ROC      -0.2772
     25 C17        14.4367   19.5268   20.0432 C.3         1 ROC       0.0066
     26 C18        14.0349   18.8522   21.3110 C.ar        1 ROC      -0.0408
     27 C19        13.5760   17.5097   21.3089 C.ar        1 ROC      -0.0603
     28 C20        14.0217   19.5729   22.5262 C.ar        1 ROC      -0.0603
     29 C21        13.1599   16.8918   22.5009 C.ar        1 ROC      -0.0686
     30 C22        13.6045   18.9539   23.7221 C.ar        1 ROC      -0.0686
     31 C23        13.1665   17.6180   23.7066 C.ar        1 ROC      -0.0687
     32 N5         15.5751   21.7746   16.5848 N.4         1 ROC       0.2562
     33 C24        14.7752   20.6039   17.1107 C.3         1 ROC      -0.0008
     34 C25        14.8262   22.7935   15.7502 C.3         1 ROC       0.0688
     35 C26        14.0827   22.2167   14.6234 C.2         1 ROC       0.2251
     36 O5         13.0548   22.7804   14.2714 O.2         1 ROC      -0.3909
     37 C27        15.7757   23.8995   15.1765 C.3         1 ROC       0.0113
     38 C28        16.6376   24.5729   16.2849 C.3         1 ROC      -0.0261
     39 C29        17.6233   25.6540   15.7344 C.3         1 ROC      -0.0494
     40 C30        18.8505   25.0597   14.9967 C.3         1 ROC      -0.0528
     41 C31        19.5799   24.0023   15.8644 C.3         1 ROC      -0.0526
     42 C32        18.6136   22.9008   16.3760 C.3         1 ROC      -0.0451
     43 C33        17.3994   23.5068   17.1385 C.3         1 ROC       0.0024
     44 C34        16.4056   22.4269   17.6613 C.3         1 ROC      -0.0266
     45 N6         14.5452   21.1514   13.9885 N.am        1 ROC      -0.2771
     46 C35        13.9160   20.3724   12.9400 C.3         1 ROC       0.0448
     47 C36        12.4570   19.9582   13.3178 C.3         1 ROC      -0.0396
     48 C37        14.7766   19.0820   12.7839 C.3         1 ROC      -0.0396
     49 C38        13.9426   21.1543   11.5961 C.3         1 ROC      -0.0396
     50 H1          9.5702   20.3508   14.8042 H           1 ROC       0.0729
     51 H2          9.2553   20.0528   12.4323 H           1 ROC       0.0774
     52 H3          8.9926   18.5208   10.4395 H           1 ROC       0.0657
     53 H4          8.8768   16.2737    9.5650 H           1 ROC       0.0652
     54 H5          9.0922   14.3725   11.0524 H           1 ROC       0.0657
     55 H6          9.4431   14.7118   13.4275 H           1 ROC       0.0653
     56 H7         10.6342   16.4944   16.7275 H           1 ROC       0.1882
     57 H8          9.6663   17.0748   19.1427 H           1 ROC       0.0826
     58 H9         11.5241   15.7206   20.0916 H           1 ROC       0.0551
     59 H10        12.4413   15.9065   18.5960 H           1 ROC       0.0551
     60 H11         9.3257   13.3133   18.7484 H           1 ROC       0.1814
     61 H12         9.3667   14.5478   19.8874 H           1 ROC       0.1814
     62 H13        13.6747   21.9130   18.4511 H           1 ROC       0.0672
     63 H14        11.7280   21.5697   17.6461 H           1 ROC       0.2101
     64 H15        12.5697   20.5347   19.8448 H           1 ROC       0.0606
     65 H16        12.8545   18.3011   17.9525 H           1 ROC       0.1857
     66 H17        15.0213   20.4212   20.2832 H           1 ROC       0.0449
     67 H18        15.0944   18.8611   19.4852 H           1 ROC       0.0449
     68 H19        13.5570   16.9805   20.4389 H           1 ROC       0.0557
     69 H20        14.3159   20.5528   22.5536 H           1 ROC       0.0557
     70 H21        12.8340   15.9218   22.4951 H           1 ROC       0.0599
     71 H22        13.5989   19.4873   24.5916 H           1 ROC       0.0599
     72 H23        12.8871   17.1620   24.5782 H           1 ROC       0.0559
     73 H24        16.2586   21.3517   15.9498 H           1 ROC       0.2057
     74 H25        14.4489   19.9764   16.2797 H           1 ROC       0.0841
     75 H26        15.4698   19.9825   17.6657 H           1 ROC       0.0841
     76 H27        14.1108   23.2902   16.4181 H           1 ROC       0.1100
     77 H28        15.1804   24.6756   14.6875 H           1 ROC       0.0348
     78 H29        16.4319   23.4591   14.4226 H           1 ROC       0.0348
     79 H30        15.9412   25.1004   16.9500 H           1 ROC       0.0309
     80 H31        17.9868   26.2579   16.5748 H           1 ROC       0.0268
     81 H32        17.0893   26.3349   15.0595 H           1 ROC       0.0268
     82 H33        19.5505   25.8666   14.7554 H           1 ROC       0.0265
     83 H34        18.5359   24.6039   14.0560 H           1 ROC       0.0265
     84 H35        20.0509   24.4981   16.7200 H           1 ROC       0.0265
     85 H36        20.3741   23.5380   15.2718 H           1 ROC       0.0265
     86 H37        19.1678   22.2354   17.0455 H           1 ROC       0.0270
     87 H38        18.2690   22.3050   15.5270 H           1 ROC       0.0270
     88 H39        17.8003   24.0172   18.0229 H           1 ROC       0.0355
     89 H40        16.9785   21.6668   18.2009 H           1 ROC       0.0818
     90 H41        15.7604   22.9194   18.3909 H           1 ROC       0.0818
     91 H42        15.3961   20.8051   14.3110 H           1 ROC       0.1859
     92 H43        12.0575   19.2274   12.6090 H           1 ROC       0.0254
     93 H44        11.7825   20.8155   13.3100 H           1 ROC       0.0254
     94 H45        12.4312   19.5140   14.3157 H           1 ROC       0.0254
     95 H46        14.3530   18.4203   12.0270 H           1 ROC       0.0254
     96 H47        14.8162   18.5323   13.7277 H           1 ROC       0.0254
     97 H48        15.7982   19.3247   12.4881 H           1 ROC       0.0254
     98 H49        13.4877   20.5512   10.8097 H           1 ROC       0.0254
     99 H50        14.9668   21.3937   11.2968 H           1 ROC       0.0254
    100 H51        13.3876   22.0916   11.6733 H           1 ROC       0.0254
@<TRIPOS>BOND
     1     2     1   2
     2     2     4   1
     3    13     2  am
     4     4     3  ar
     5     3    12  ar
     6     4     5  ar
     7     5     6  ar
     8     6     7  ar
     9     7     8  ar
    10    12     7  ar
    11     8     9  ar
    12    10     9  ar
    13    11    10  ar
    14    12    11  ar
    15    14    13   1
    16    15    14   1
    17    14    17   1
    18    15    16   2
    19    24    15  am
    20    17    18   1
    21    18    19   2
    22    18    20  am
    23    21    22   1
    24    23    21   1
    25    21    33   1
    26    23    24   1
    27    23    25   1
    28    25    26   1
    29    26    27  ar
    30    26    28  ar
    31    27    29  ar
    32    28    30  ar
    33    29    31  ar
    34    30    31  ar
    35    33    32   1
    36    32    34   1
    37    32    44   1
    38    34    35   1
    39    34    37   1
    40    35    36   2
    41    35    45  am
    42    37    38   1
    43    38    39   1
    44    38    43   1
    45    39    40   1
    46    40    41   1
    47    41    42   1
    48    42    43   1
    49    43    44   1
    50    45    46   1
    51    46    47   1
    52    46    48   1
    53    46    49   1
    54     5    50   1
    55     6    51   1
    56     8    52   1
    57     9    53   1
    58    10    54   1
    59    11    55   1
    60    13    56   1
    61    14    57   1
    62    17    58   1
    63    17    59   1
    64    20    60   1
    65    20    61   1
    66    21    62   1
    67    22    63   1
    68    23    64   1
    69    24    65   1
    70    25    66   1
    71    25    67   1
    72    27    68   1
    73    28    69   1
    74    29    70   1
    75    30    71   1
    76    31    72   1
    77    32    73   1
    78    33    74   1
    79    33    75   1
    80    34    76   1
    81    37    77   1
    82    37    78   1
    83    38    79   1
    84    39    80   1
    85    39    81   1
    86    40    82   1
    87    40    83   1
    88    41    84   1
    89    41    85   1
    90    42    86   1
    91    42    87   1
    92    43    88   1
    93    44    89   1
    94    44    90   1
    95    45    91   1
    96    47    92   1
    97    47    93   1
    98    47    94   1
    99    48    95   1
   100    48    96   1
   101    48    97   1
   102    49    98   1
   103    49    99   1
   104    49   100   1
@<TRIPOS>SUBSTRUCTURE
     1  ROC      2

