@<TRIPOS>MOLECULE
3cyx_ligand_083
   100   104
SMALL
GAST_HUCK
****
This file was generated by PARSER (from files_GN.cpp)

@<TRIPOS>ATOM
      1 O1         17.7130   24.6386   19.5445 O.2         1 ROC      -0.3762
      2 C1         18.6055   24.8720   18.7387 C.2         1 ROC       0.2293
      3 N1         20.7535   25.7722   18.2511 N.ar        1 ROC      -0.2737
      4 C2         19.8025   25.4436   19.1700 C.ar        1 ROC       0.1219
      5 C3         20.0935   25.6937   20.5344 C.ar        1 ROC      -0.0136
      6 C4         21.3326   26.2559   20.8992 C.ar        1 ROC      -0.0314
      7 C5         22.2845   26.5781   19.9124 C.ar        1 ROC       0.0097
      8 C6         23.5427   27.1384   20.2286 C.ar        1 ROC      -0.0444
      9 C7         24.4611   27.4382   19.2048 C.ar        1 ROC      -0.0546
     10 C8         24.1307   27.1836   17.8606 C.ar        1 ROC      -0.0545
     11 C9R        22.8808   26.6245   17.5344 C.ar        1 ROC      -0.0370
     12 C10        21.9597   26.3208   18.5539 C.ar        1 ROC       0.0527
     13 N2         18.4350   24.5490   17.4583 N.am        1 ROC      -0.2600
     14 C11        17.2867   23.9114   16.8635 C.3         1 ROC       0.1473
     15 C12        17.0793   22.5709   17.4129 C.2         1 ROC       0.2045
     16 O2         18.0588   21.8544   17.5888 O.2         1 ROC      -0.3943
     17 C13        17.4320   23.8140   15.3160 C.3         1 ROC       0.0773
     18 C14        17.6098   25.0940   14.6477 C.2         1 ROC       0.1780
     19 O3         18.6215   25.3211   13.9999 O.2         1 ROC      -0.3970
     20 N3         16.6928   26.0319   14.6975 N.am        1 ROC      -0.3007
     21 C15        14.6467   20.0280   17.1864 C.3         1 ROC       0.1194
     22 O4         15.5226   19.6860   16.1086 O.3         1 ROC      -0.3840
     23 C16        15.4753   20.8615   18.2166 C.3         1 ROC       0.0823
     24 N4         15.8479   22.1292   17.6488 N.am        1 ROC      -0.2772
     25 C17        14.8069   21.1218   19.6051 C.3         1 ROC       0.0066
     26 C18        14.6268   19.9313   20.4920 C.ar        1 ROC      -0.0408
     27 C19        13.3789   19.6536   21.1036 C.ar        1 ROC      -0.0603
     28 C20        15.7179   19.0770   20.7971 C.ar        1 ROC      -0.0603
     29 C21        13.2199   18.5435   21.9579 C.ar        1 ROC      -0.0686
     30 C22        15.5436   17.9333   21.5965 C.ar        1 ROC      -0.0686
     31 C23        14.2937   17.6670   22.1839 C.ar        1 ROC      -0.0687
     32 N5         12.6669   19.7137   15.6249 N.4         1 ROC       0.2562
     33 C24        13.3558   20.6652   16.5882 C.3         1 ROC      -0.0008
     34 C25        11.2150   19.4358   15.9261 C.3         1 ROC       0.0688
     35 C26        11.0204   18.8812   17.2703 C.2         1 ROC       0.2251
     36 O5         10.2046   19.4205   18.0041 O.2         1 ROC      -0.3909
     37 C27        10.5562   18.4475   14.9107 C.3         1 ROC       0.0113
     38 C28        10.8107   18.8312   13.4252 C.3         1 ROC      -0.0261
     39 C29        10.2340   17.7740   12.4306 C.3         1 ROC      -0.0494
     40 C30        11.0616   16.4603   12.3679 C.3         1 ROC      -0.0528
     41 C31        12.5641   16.7388   12.1108 C.3         1 ROC      -0.0526
     42 C32        13.1523   17.7610   13.1182 C.3         1 ROC      -0.0451
     43 C33        12.3280   19.0865   13.1576 C.3         1 ROC       0.0024
     44 C34        12.8852   20.1088   14.1890 C.3         1 ROC      -0.0266
     45 N6         11.7008   17.7948   17.6282 N.am        1 ROC      -0.2771
     46 C35        11.6705   16.9871   18.8285 C.3         1 ROC       0.0448
     47 C36        10.9786   17.6343   20.0767 C.3         1 ROC      -0.0396
     48 C37        13.1555   16.6982   19.1810 C.3         1 ROC      -0.0396
     49 C38        10.9683   15.6419   18.4615 C.3         1 ROC      -0.0396
     50 H1         19.4205   25.4663   21.2701 H           1 ROC       0.0729
     51 H2         21.5332   26.4214   21.8890 H           1 ROC       0.0774
     52 H3         23.7982   27.3273   21.2009 H           1 ROC       0.0657
     53 H4         25.3706   27.8432   19.4372 H           1 ROC       0.0652
     54 H5         24.8012   27.4021   17.1207 H           1 ROC       0.0657
     55 H6         22.6506   26.4368   16.5549 H           1 ROC       0.0653
     56 H7         19.1673   24.7621   16.8571 H           1 ROC       0.1882
     57 H8         16.4115   24.5411   17.0737 H           1 ROC       0.0826
     58 H9         16.5349   23.3434   14.8995 H           1 ROC       0.0551
     59 H10        18.2794   23.1592   15.0774 H           1 ROC       0.0551
     60 H11        16.8423   26.8742   14.2380 H           1 ROC       0.1814
     61 H12        15.8661   25.9001   15.1909 H           1 ROC       0.1814
     62 H13        14.3638   19.0875   17.6656 H           1 ROC       0.0672
     63 H14        15.1294   18.8838   15.7051 H           1 ROC       0.2101
     64 H15        16.3829   20.2813   18.4084 H           1 ROC       0.0606
     65 H16        15.1150   22.7267   17.4296 H           1 ROC       0.1857
     66 H17        13.8490   21.6190   19.4385 H           1 ROC       0.0449
     67 H18        15.4302   21.8281   20.1599 H           1 ROC       0.0449
     68 H19        12.5741   20.2565   20.9336 H           1 ROC       0.0557
     69 H20        16.6532   19.2783   20.4390 H           1 ROC       0.0557
     70 H21        12.3205   18.3632   22.4073 H           1 ROC       0.0599
     71 H22        16.3396   17.3154   21.7816 H           1 ROC       0.0599
     72 H23        14.1722   16.8497   22.7892 H           1 ROC       0.0559
     73 H24        13.1372   18.8089   15.7312 H           1 ROC       0.2057
     74 H25        13.6213   21.6084   16.0969 H           1 ROC       0.0841
     75 H26        12.7020   20.9464   17.4187 H           1 ROC       0.0841
     76 H27        10.6751   20.3882   15.8390 H           1 ROC       0.1100
     77 H28         9.4759   18.4208   15.0837 H           1 ROC       0.0348
     78 H29        10.9346   17.4370   15.0764 H           1 ROC       0.0348
     79 H30        10.2748   19.7705   13.2412 H           1 ROC       0.0309
     80 H31        10.2103   18.2116   11.4281 H           1 ROC       0.0268
     81 H32         9.2029   17.5323   12.7025 H           1 ROC       0.0268
     82 H33        10.6722   15.8303   11.5652 H           1 ROC       0.0265
     83 H34        10.9513   15.9014   13.3012 H           1 ROC       0.0265
     84 H35        12.6881   17.1239   11.0957 H           1 ROC       0.0265
     85 H36        13.1221   15.7999   12.1815 H           1 ROC       0.0265
     86 H37        14.1865   17.9789   12.8314 H           1 ROC       0.0270
     87 H38        13.1769   17.3021   14.1088 H           1 ROC       0.0270
     88 H39        12.4182   19.5451   12.1659 H           1 ROC       0.0355
     89 H40        13.9521   20.2353   13.9928 H           1 ROC       0.0818
     90 H41        12.4092   21.0767   14.0008 H           1 ROC       0.0818
     91 H42        12.3184   17.4680   16.9512 H           1 ROC       0.1859
     92 H43        11.1545   17.0375   20.9765 H           1 ROC       0.0254
     93 H44         9.8945   17.6952   19.9205 H           1 ROC       0.0254
     94 H45        11.3695   18.6434   20.2652 H           1 ROC       0.0254
     95 H46        13.2196   16.0839   20.0785 H           1 ROC       0.0254
     96 H47        13.6936   17.6250   19.3654 H           1 ROC       0.0254
     97 H48        13.6552   16.1742   18.3640 H           1 ROC       0.0254
     98 H49        10.9927   14.9487   19.3039 H           1 ROC       0.0254
     99 H50        11.4618   15.1599   17.6157 H           1 ROC       0.0254
    100 H51         9.9243   15.8079   18.1859 H           1 ROC       0.0254
@<TRIPOS>BOND
     1     2     1   2
     2     2     4   1
     3    13     2  am
     4     4     3  ar
     5     3    12  ar
     6     4     5  ar
     7     5     6  ar
     8     6     7  ar
     9     7     8  ar
    10    12     7  ar
    11     8     9  ar
    12    10     9  ar
    13    11    10  ar
    14    12    11  ar
    15    14    13   1
    16    15    14   1
    17    14    17   1
    18    15    16   2
    19    24    15  am
    20    17    18   1
    21    18    19   2
    22    18    20  am
    23    21    22   1
    24    23    21   1
    25    21    33   1
    26    23    24   1
    27    23    25   1
    28    25    26   1
    29    26    27  ar
    30    26    28  ar
    31    27    29  ar
    32    28    30  ar
    33    29    31  ar
    34    30    31  ar
    35    33    32   1
    36    32    34   1
    37    32    44   1
    38    34    35   1
    39    34    37   1
    40    35    36   2
    41    35    45  am
    42    37    38   1
    43    38    39   1
    44    38    43   1
    45    39    40   1
    46    40    41   1
    47    41    42   1
    48    42    43   1
    49    43    44   1
    50    45    46   1
    51    46    47   1
    52    46    48   1
    53    46    49   1
    54     5    50   1
    55     6    51   1
    56     8    52   1
    57     9    53   1
    58    10    54   1
    59    11    55   1
    60    13    56   1
    61    14    57   1
    62    17    58   1
    63    17    59   1
    64    20    60   1
    65    20    61   1
    66    21    62   1
    67    22    63   1
    68    23    64   1
    69    24    65   1
    70    25    66   1
    71    25    67   1
    72    27    68   1
    73    28    69   1
    74    29    70   1
    75    30    71   1
    76    31    72   1
    77    32    73   1
    78    33    74   1
    79    33    75   1
    80    34    76   1
    81    37    77   1
    82    37    78   1
    83    38    79   1
    84    39    80   1
    85    39    81   1
    86    40    82   1
    87    40    83   1
    88    41    84   1
    89    41    85   1
    90    42    86   1
    91    42    87   1
    92    43    88   1
    93    44    89   1
    94    44    90   1
    95    45    91   1
    96    47    92   1
    97    47    93   1
    98    47    94   1
    99    48    95   1
   100    48    96   1
   101    48    97   1
   102    49    98   1
   103    49    99   1
   104    49   100   1
@<TRIPOS>SUBSTRUCTURE
     1  ROC      2

