@<TRIPOS>MOLECULE
3cyx_ligand_077
   100   104
SMALL
GAST_HUCK
****
This file was generated by PARSER (from files_GN.cpp)

@<TRIPOS>ATOM
      1 O1         11.2160   13.7495   16.4848 O.2         1 ROC      -0.3762
      2 C1         10.3158   13.0389   16.0445 C.2         1 ROC       0.2293
      3 N1          9.5891   10.9700   15.1315 N.ar        1 ROC      -0.2737
      4 C2         10.5898   11.7276   15.6674 C.ar        1 ROC       0.1219
      5 C3         11.8582   11.1195   15.8231 C.ar        1 ROC      -0.0136
      6 C4         12.0494    9.7766   15.4458 C.ar        1 ROC      -0.0314
      7 C5         10.9826    9.0334   14.9003 C.ar        1 ROC       0.0097
      8 C6         11.1175    7.6830   14.5122 C.ar        1 ROC      -0.0444
      9 C7         10.0157    6.9889   13.9737 C.ar        1 ROC      -0.0546
     10 C8          8.7780    7.6357   13.8186 C.ar        1 ROC      -0.0545
     11 C9R         8.6301    8.9810   14.2033 C.ar        1 ROC      -0.0370
     12 C10         9.7273    9.6792   14.7456 C.ar        1 ROC       0.0527
     13 N2          9.0749   13.5154   15.9502 N.am        1 ROC      -0.2600
     14 C11         8.5917   14.8208   16.3270 C.3         1 ROC       0.1473
     15 C12         9.0713   15.9007   15.4651 C.2         1 ROC       0.2045
     16 O2          9.8422   15.6541   14.5383 O.2         1 ROC      -0.3943
     17 C13         8.7900   15.0556   17.8747 C.3         1 ROC       0.0773
     18 C14         7.5587   14.9031   18.6348 C.2         1 ROC       0.1780
     19 O3          7.3238   13.8714   19.2400 O.2         1 ROC      -0.3970
     20 N3          6.6409   15.8389   18.6493 N.am        1 ROC      -0.3007
     21 C15         9.8970   19.2093   15.7605 C.3         1 ROC       0.1194
     22 O4         10.4113   20.2493   14.9342 O.3         1 ROC      -0.3840
     23 C16         8.9428   18.3157   14.8886 C.3         1 ROC       0.0823
     24 N4          8.6086   17.1343   15.6324 N.am        1 ROC      -0.2772
     25 C17         7.6600   19.0808   14.4044 C.3         1 ROC       0.0066
     26 C18         6.4074   18.2779   14.3116 C.ar        1 ROC      -0.0408
     27 C19         6.3835   17.0559   13.5947 C.ar        1 ROC      -0.0603
     28 C20         5.2199   18.6969   14.9657 C.ar        1 ROC      -0.0603
     29 C21         5.2317   16.2521   13.5829 C.ar        1 ROC      -0.0686
     30 C22         4.0684   17.8935   14.9502 C.ar        1 ROC      -0.0686
     31 C23         4.0745   16.6589   14.2748 C.ar        1 ROC      -0.0687
     32 N5         12.3188   19.1181   16.8967 N.4         1 ROC       0.2562
     33 C24        11.0683   18.4115   16.4223 C.3         1 ROC      -0.0008
     34 C25        12.9104   20.1804   15.9970 C.3         1 ROC       0.0688
     35 C26        13.0341   19.8200   14.5849 C.2         1 ROC       0.2251
     36 O5         13.0705   20.7348   13.7671 O.2         1 ROC      -0.3909
     37 C27        14.3219   20.6149   16.5165 C.3         1 ROC       0.0113
     38 C28        14.2533   21.1038   17.9963 C.3         1 ROC      -0.0261
     39 C29        15.6352   21.5459   18.5706 C.3         1 ROC      -0.0494
     40 C30        16.5850   20.3584   18.8857 C.3         1 ROC      -0.0528
     41 C31        15.8956   19.2968   19.7804 C.3         1 ROC      -0.0526
     42 C32        14.5260   18.8365   19.2144 C.3         1 ROC      -0.0451
     43 C33        13.5737   20.0388   18.9157 C.3         1 ROC       0.0024
     44 C34        12.2036   19.5979   18.3149 C.3         1 ROC      -0.0266
     45 N6         13.1454   18.5476   14.2169 N.am        1 ROC      -0.2771
     46 C35        13.0930   17.9250   12.9122 C.3         1 ROC       0.0448
     47 C36        14.5612   17.6958   12.4629 C.3         1 ROC      -0.0396
     48 C37        12.3062   18.7150   11.8187 C.3         1 ROC      -0.0396
     49 C38        12.3951   16.5361   13.0928 C.3         1 ROC      -0.0396
     50 H1         12.6460   11.6363   16.2248 H           1 ROC       0.0729
     51 H2         12.9674    9.3461   15.5757 H           1 ROC       0.0774
     52 H3         12.0114    7.1960   14.6203 H           1 ROC       0.0657
     53 H4         10.1181    6.0083   13.6930 H           1 ROC       0.0652
     54 H5          7.9801    7.1282   13.4256 H           1 ROC       0.0657
     55 H6          7.7261    9.4454   14.0905 H           1 ROC       0.0653
     56 H7          8.4055   12.9015   15.6100 H           1 ROC       0.1882
     57 H8          7.5204   14.7805   16.1121 H           1 ROC       0.0826
     58 H9          9.1966   16.0475   18.0853 H           1 ROC       0.0551
     59 H10         9.5270   14.3521   18.2729 H           1 ROC       0.0551
     60 H11         5.8104   15.6971   19.1331 H           1 ROC       0.1814
     61 H12         6.7994   16.6817   18.2017 H           1 ROC       0.1814
     62 H13         9.3246   19.6878   16.5625 H           1 ROC       0.0672
     63 H14         9.7519   20.9823   15.0190 H           1 ROC       0.2101
     64 H15         9.4990   18.0461   13.9840 H           1 ROC       0.0606
     65 H16         7.9837   17.2608   16.3580 H           1 ROC       0.1857
     66 H17         7.8550   19.5071   13.4112 H           1 ROC       0.0449
     67 H18         7.4906   19.9315   15.0713 H           1 ROC       0.0449
     68 H19         7.2182   16.7370   13.0980 H           1 ROC       0.0557
     69 H20         5.1923   19.5894   15.4684 H           1 ROC       0.0557
     70 H21         5.2299   15.3640   13.0731 H           1 ROC       0.0599
     71 H22         3.2211   18.2016   15.4394 H           1 ROC       0.0599
     72 H23         3.2445   16.0689   14.2789 H           1 ROC       0.0559
     73 H24        13.0253   18.3789   16.9252 H           1 ROC       0.2057
     74 H25        11.3657   17.6349   15.7264 H           1 ROC       0.0841
     75 H26        10.6549   17.8582   17.2703 H           1 ROC       0.0841
     76 H27        12.2657   21.0632   16.0569 H           1 ROC       0.1100
     77 H28        14.7091   21.4321   15.8977 H           1 ROC       0.0348
     78 H29        15.0095   19.7705   16.4252 H           1 ROC       0.0348
     79 H30        13.6189   21.9991   18.0012 H           1 ROC       0.0309
     80 H31        15.4644   22.1004   19.5003 H           1 ROC       0.0268
     81 H32        16.1286   22.2274   17.8751 H           1 ROC       0.0268
     82 H33        17.4735   20.7364   19.3982 H           1 ROC       0.0265
     83 H34        16.9169   19.8954   17.9543 H           1 ROC       0.0265
     84 H35        15.7513   19.7107   20.7808 H           1 ROC       0.0265
     85 H36        16.5553   18.4288   19.8739 H           1 ROC       0.0265
     86 H37        14.0568   18.1734   19.9449 H           1 ROC       0.0270
     87 H38        14.6962   18.2524   18.3065 H           1 ROC       0.0270
     88 H39        13.3577   20.5199   19.8757 H           1 ROC       0.0355
     89 H40        11.7923   18.8107   18.9527 H           1 ROC       0.0818
     90 H41        11.5043   20.4405   18.3659 H           1 ROC       0.0818
     91 H42        13.2253   17.9230   14.9546 H           1 ROC       0.1859
     92 H43        14.5949   17.1953   11.4925 H           1 ROC       0.0254
     93 H44        15.0959   17.0760   13.1862 H           1 ROC       0.0254
     94 H45        15.0830   18.6523   12.3808 H           1 ROC       0.0254
     95 H46        12.1726   18.1124   10.9191 H           1 ROC       0.0254
     96 H47        12.8398   19.6231   11.5335 H           1 ROC       0.0254
     97 H48        11.3194   18.9968   12.1912 H           1 ROC       0.0254
     98 H49        12.4536   15.9465   12.1737 H           1 ROC       0.0254
     99 H50        11.3386   16.6646   13.3395 H           1 ROC       0.0254
    100 H51        12.8613   15.9570   13.8944 H           1 ROC       0.0254
@<TRIPOS>BOND
     1     2     1   2
     2     2     4   1
     3    13     2  am
     4     4     3  ar
     5     3    12  ar
     6     4     5  ar
     7     5     6  ar
     8     6     7  ar
     9     7     8  ar
    10    12     7  ar
    11     8     9  ar
    12    10     9  ar
    13    11    10  ar
    14    12    11  ar
    15    14    13   1
    16    15    14   1
    17    14    17   1
    18    15    16   2
    19    24    15  am
    20    17    18   1
    21    18    19   2
    22    18    20  am
    23    21    22   1
    24    23    21   1
    25    21    33   1
    26    23    24   1
    27    23    25   1
    28    25    26   1
    29    26    27  ar
    30    26    28  ar
    31    27    29  ar
    32    28    30  ar
    33    29    31  ar
    34    30    31  ar
    35    33    32   1
    36    32    34   1
    37    32    44   1
    38    34    35   1
    39    34    37   1
    40    35    36   2
    41    35    45  am
    42    37    38   1
    43    38    39   1
    44    38    43   1
    45    39    40   1
    46    40    41   1
    47    41    42   1
    48    42    43   1
    49    43    44   1
    50    45    46   1
    51    46    47   1
    52    46    48   1
    53    46    49   1
    54     5    50   1
    55     6    51   1
    56     8    52   1
    57     9    53   1
    58    10    54   1
    59    11    55   1
    60    13    56   1
    61    14    57   1
    62    17    58   1
    63    17    59   1
    64    20    60   1
    65    20    61   1
    66    21    62   1
    67    22    63   1
    68    23    64   1
    69    24    65   1
    70    25    66   1
    71    25    67   1
    72    27    68   1
    73    28    69   1
    74    29    70   1
    75    30    71   1
    76    31    72   1
    77    32    73   1
    78    33    74   1
    79    33    75   1
    80    34    76   1
    81    37    77   1
    82    37    78   1
    83    38    79   1
    84    39    80   1
    85    39    81   1
    86    40    82   1
    87    40    83   1
    88    41    84   1
    89    41    85   1
    90    42    86   1
    91    42    87   1
    92    43    88   1
    93    44    89   1
    94    44    90   1
    95    45    91   1
    96    47    92   1
    97    47    93   1
    98    47    94   1
    99    48    95   1
   100    48    96   1
   101    48    97   1
   102    49    98   1
   103    49    99   1
   104    49   100   1
@<TRIPOS>SUBSTRUCTURE
     1  ROC      2

