@<TRIPOS>MOLECULE
3cyx_ligand_062
   100   104
SMALL
GAST_HUCK
****
This file was generated by PARSER (from files_GN.cpp)

@<TRIPOS>ATOM
      1 O1         14.4380   23.9577   17.8713 O.2         1 ROC      -0.3762
      2 C1         14.8160   22.9320   17.3168 C.2         1 ROC       0.2293
      3 N1         14.5049   21.2930   15.6255 N.ar        1 ROC      -0.2737
      4 C2         14.0200   22.3511   16.3346 C.ar        1 ROC       0.1219
      5 C3         12.7314   22.8336   15.9939 C.ar        1 ROC      -0.0136
      6 C4         11.9893   22.2046   14.9773 C.ar        1 ROC      -0.0314
      7 C5         12.5313   21.1115   14.2754 C.ar        1 ROC       0.0097
      8 C6         11.8307   20.4548   13.2396 C.ar        1 ROC      -0.0444
      9 C7         12.4284   19.3855   12.5474 C.ar        1 ROC      -0.0546
     10 C8         13.7260   18.9608   12.8871 C.ar        1 ROC      -0.0545
     11 C9R        14.4260   19.5994   13.9275 C.ar        1 ROC      -0.0370
     12 C10        13.8338   20.6682   14.6239 C.ar        1 ROC       0.0527
     13 N2         15.9929   22.3998   17.6360 N.am        1 ROC      -0.2600
     14 C11        16.9964   22.9425   18.5144 C.3         1 ROC       0.1473
     15 C12        18.1721   23.1631   17.6751 C.2         1 ROC       0.2045
     16 O2         18.8740   22.2052   17.3718 O.2         1 ROC      -0.3943
     17 C13        17.2679   22.0327   19.7656 C.3         1 ROC       0.0773
     18 C14        16.1127   21.3177   20.2849 C.2         1 ROC       0.1780
     19 O3         16.0309   20.1023   20.1689 O.2         1 ROC      -0.3970
     20 N3         15.1202   21.9293   20.8911 N.am        1 ROC      -0.3007
     21 C15        19.6586   26.2581   16.1527 C.3         1 ROC       0.1194
     22 O4         19.0721   26.8141   14.9714 O.3         1 ROC      -0.3840
     23 C16        19.4798   24.6991   16.2322 C.3         1 ROC       0.0823
     24 N4         18.3826   24.3502   17.0908 N.am        1 ROC      -0.2772
     25 C17        19.4248   23.9582   14.8469 C.3         1 ROC       0.0066
     26 C18        18.2973   24.2460   13.9048 C.ar        1 ROC      -0.0408
     27 C19        18.5319   24.8144   12.6364 C.ar        1 ROC      -0.0603
     28 C20        16.9679   23.8694   14.2282 C.ar        1 ROC      -0.0603
     29 C21        17.4792   25.0042   11.7143 C.ar        1 ROC      -0.0686
     30 C22        15.9110   24.0677   13.3146 C.ar        1 ROC      -0.0686
     31 C23        16.1651   24.6306   12.0590 C.ar        1 ROC      -0.0687
     32 N5         21.9866   26.4167   17.4452 N.4         1 ROC       0.2562
     33 C24        21.1349   26.7622   16.2402 C.3         1 ROC      -0.0008
     34 C25        23.1343   27.3886   17.6631 C.3         1 ROC       0.0688
     35 C26        24.0469   27.6117   16.5318 C.2         1 ROC       0.2251
     36 O5         24.2512   26.7131   15.7081 O.2         1 ROC      -0.3909
     37 C27        24.0210   27.0213   18.8985 C.3         1 ROC       0.0113
     38 C28        23.1884   26.7911   20.1924 C.3         1 ROC      -0.0261
     39 C29        24.0530   26.3492   21.4112 C.3         1 ROC      -0.0494
     40 C30        24.5558   24.8832   21.3150 C.3         1 ROC      -0.0528
     41 C31        23.4031   23.8890   21.0224 C.3         1 ROC      -0.0526
     42 C32        22.5590   24.3094   19.7918 C.3         1 ROC      -0.0451
     43 C33        22.0377   25.7754   19.9373 C.3         1 ROC       0.0024
     44 C34        21.1975   26.2458   18.7169 C.3         1 ROC      -0.0266
     45 N6         24.7866   28.7231   16.5182 N.am        1 ROC      -0.2771
     46 C35        25.9496   29.0698   15.7245 C.3         1 ROC       0.0448
     47 C36        27.2258   28.6718   16.5315 C.3         1 ROC      -0.0396
     48 C37        25.9078   30.6186   15.5335 C.3         1 ROC      -0.0396
     49 C38        25.9843   28.3943   14.3164 C.3         1 ROC      -0.0396
     50 H1         12.3256   23.6411   16.4731 H           1 ROC       0.0729
     51 H2         11.0564   22.5566   14.7479 H           1 ROC       0.0774
     52 H3         10.8859   20.7531   12.9838 H           1 ROC       0.0657
     53 H4         11.9210   18.9171   11.7930 H           1 ROC       0.0652
     54 H5         14.1612   18.1872   12.3790 H           1 ROC       0.0657
     55 H6         15.3672   19.2897   14.1677 H           1 ROC       0.0653
     56 H7         16.2180   21.5618   17.2015 H           1 ROC       0.1882
     57 H8         16.6757   23.9156   18.9076 H           1 ROC       0.0826
     58 H9         17.6711   22.6541   20.5717 H           1 ROC       0.0551
     59 H10        18.0434   21.2933   19.5379 H           1 ROC       0.0551
     60 H11        14.3648   21.4135   21.2154 H           1 ROC       0.1814
     61 H12        15.1343   22.8900   21.0168 H           1 ROC       0.1814
     62 H13        19.1141   26.7341   16.9693 H           1 ROC       0.0672
     63 H14        18.1061   26.6510   15.0674 H           1 ROC       0.2101
     64 H15        20.3751   24.3092   16.7187 H           1 ROC       0.0606
     65 H16        17.7582   25.0596   17.3214 H           1 ROC       0.1857
     66 H17        19.4028   22.8834   15.0523 H           1 ROC       0.0449
     67 H18        20.3839   24.1431   14.3502 H           1 ROC       0.0449
     68 H19        19.4748   25.0823   12.3489 H           1 ROC       0.0557
     69 H20        16.7616   23.4196   15.1197 H           1 ROC       0.0557
     70 H21        17.6651   25.3944   10.7869 H           1 ROC       0.0599
     71 H22        14.9615   23.7832   13.5634 H           1 ROC       0.0599
     72 H23        15.4045   24.7603   11.3863 H           1 ROC       0.0559
     73 H24        22.3957   25.5015   17.2348 H           1 ROC       0.2057
     74 H25        21.0972   27.8527   16.1329 H           1 ROC       0.0841
     75 H26        21.6588   26.3722   15.3609 H           1 ROC       0.0841
     76 H27        22.6730   28.3554   17.8889 H           1 ROC       0.1100
     77 H28        24.7304   27.8323   19.0964 H           1 ROC       0.0348
     78 H29        24.6042   26.1285   18.6694 H           1 ROC       0.0348
     79 H30        22.7338   27.7545   20.4574 H           1 ROC       0.0309
     80 H31        23.4547   26.4489   22.3220 H           1 ROC       0.0268
     81 H32        24.9091   27.0200   21.5175 H           1 ROC       0.0268
     82 H33        25.0365   24.6083   22.2573 H           1 ROC       0.0265
     83 H34        25.3106   24.8052   20.5306 H           1 ROC       0.0265
     84 H35        22.7512   23.8296   21.8950 H           1 ROC       0.0265
     85 H36        23.8219   22.8947   20.8531 H           1 ROC       0.0265
     86 H37        21.7126   23.6239   19.6966 H           1 ROC       0.0270
     87 H38        23.1634   24.2057   18.8877 H           1 ROC       0.0270
     88 H39        21.3658   25.7920   20.8050 H           1 ROC       0.0355
     89 H40        20.4098   25.4954   18.5965 H           1 ROC       0.0818
     90 H41        20.6975   27.1902   18.9651 H           1 ROC       0.0818
     91 H42        24.5958   29.3492   17.2461 H           1 ROC       0.1859
     92 H43        28.1309   28.9857   16.0038 H           1 ROC       0.0254
     93 H44        27.2638   27.5876   16.6722 H           1 ROC       0.0254
     94 H45        27.2173   29.1458   17.5186 H           1 ROC       0.0254
     95 H46        26.7599   30.9655   14.9403 H           1 ROC       0.0254
     96 H47        25.9307   31.1310   16.5013 H           1 ROC       0.0254
     97 H48        24.9871   30.9123   15.0159 H           1 ROC       0.0254
     98 H49        26.8555   28.7395   13.7413 H           1 ROC       0.0254
     99 H50        25.0848   28.6413   13.7480 H           1 ROC       0.0254
    100 H51        26.0417   27.3039   14.4084 H           1 ROC       0.0254
@<TRIPOS>BOND
     1     2     1   2
     2     2     4   1
     3    13     2  am
     4     4     3  ar
     5     3    12  ar
     6     4     5  ar
     7     5     6  ar
     8     6     7  ar
     9     7     8  ar
    10    12     7  ar
    11     8     9  ar
    12    10     9  ar
    13    11    10  ar
    14    12    11  ar
    15    14    13   1
    16    15    14   1
    17    14    17   1
    18    15    16   2
    19    24    15  am
    20    17    18   1
    21    18    19   2
    22    18    20  am
    23    21    22   1
    24    23    21   1
    25    21    33   1
    26    23    24   1
    27    23    25   1
    28    25    26   1
    29    26    27  ar
    30    26    28  ar
    31    27    29  ar
    32    28    30  ar
    33    29    31  ar
    34    30    31  ar
    35    33    32   1
    36    32    34   1
    37    32    44   1
    38    34    35   1
    39    34    37   1
    40    35    36   2
    41    35    45  am
    42    37    38   1
    43    38    39   1
    44    38    43   1
    45    39    40   1
    46    40    41   1
    47    41    42   1
    48    42    43   1
    49    43    44   1
    50    45    46   1
    51    46    47   1
    52    46    48   1
    53    46    49   1
    54     5    50   1
    55     6    51   1
    56     8    52   1
    57     9    53   1
    58    10    54   1
    59    11    55   1
    60    13    56   1
    61    14    57   1
    62    17    58   1
    63    17    59   1
    64    20    60   1
    65    20    61   1
    66    21    62   1
    67    22    63   1
    68    23    64   1
    69    24    65   1
    70    25    66   1
    71    25    67   1
    72    27    68   1
    73    28    69   1
    74    29    70   1
    75    30    71   1
    76    31    72   1
    77    32    73   1
    78    33    74   1
    79    33    75   1
    80    34    76   1
    81    37    77   1
    82    37    78   1
    83    38    79   1
    84    39    80   1
    85    39    81   1
    86    40    82   1
    87    40    83   1
    88    41    84   1
    89    41    85   1
    90    42    86   1
    91    42    87   1
    92    43    88   1
    93    44    89   1
    94    44    90   1
    95    45    91   1
    96    47    92   1
    97    47    93   1
    98    47    94   1
    99    48    95   1
   100    48    96   1
   101    48    97   1
   102    49    98   1
   103    49    99   1
   104    49   100   1
@<TRIPOS>SUBSTRUCTURE
     1  ROC      2

