@<TRIPOS>MOLECULE
3cyx_ligand_055
   100   104
SMALL
GAST_HUCK
****
This file was generated by PARSER (from files_GN.cpp)

@<TRIPOS>ATOM
      1 O1         18.1436   22.9187   15.4860 O.2         1 ROC      -0.3762
      2 C1         18.0084   24.0745   15.9090 C.2         1 ROC       0.2293
      3 N1         19.4545   23.6318   17.7566 N.ar        1 ROC      -0.2737
      4 C2         18.8329   24.5295   16.9294 C.ar        1 ROC       0.1219
      5 C3         19.0418   25.9066   17.1893 C.ar        1 ROC      -0.0136
      6 C4         19.8746   26.3094   18.2509 C.ar        1 ROC      -0.0314
      7 C5         20.4968   25.3500   19.0712 C.ar        1 ROC       0.0097
      8 C6         21.3302   25.7210   20.1514 C.ar        1 ROC      -0.0444
      9 C7         21.8919   24.7352   20.9799 C.ar        1 ROC      -0.0546
     10 C8         21.6274   23.3743   20.7384 C.ar        1 ROC      -0.0545
     11 C9R        20.8135   22.9974   19.6514 C.ar        1 ROC      -0.0370
     12 C10        20.2533   23.9747   18.8051 C.ar        1 ROC       0.0527
     13 N2         16.9975   24.8126   15.4638 N.am        1 ROC      -0.2600
     14 C11        15.9762   24.4741   14.5084 C.3         1 ROC       0.1473
     15 C12        15.1152   23.3925   14.9887 C.2         1 ROC       0.2045
     16 O2         13.8994   23.5652   14.9915 O.2         1 ROC      -0.3943
     17 C13        16.5178   24.1913   13.0623 C.3         1 ROC       0.0773
     18 C14        16.6023   25.3673   12.2148 C.2         1 ROC       0.1780
     19 O3         17.3094   26.3138   12.5369 O.2         1 ROC      -0.3970
     20 N3         15.9344   25.4544   11.0808 N.am        1 ROC      -0.3007
     21 C15        13.7763   20.5398   14.8461 C.3         1 ROC       0.1194
     22 O4         13.6848   21.3797   13.6858 O.3         1 ROC      -0.3840
     23 C16        14.8938   21.0774   15.8436 C.3         1 ROC       0.0823
     24 N4         15.6240   22.2247   15.3598 N.am        1 ROC      -0.2772
     25 C17        14.4755   21.3462   17.3230 C.3         1 ROC       0.0066
     26 C18        15.5737   21.8217   18.2150 C.ar        1 ROC      -0.0408
     27 C19        15.5704   23.1374   18.7335 C.ar        1 ROC      -0.0603
     28 C20        16.5984   20.9341   18.6184 C.ar        1 ROC      -0.0603
     29 C21        16.5321   23.5385   19.6783 C.ar        1 ROC      -0.0686
     30 C22        17.5511   21.3297   19.5765 C.ar        1 ROC      -0.0686
     31 C23        17.5084   22.6267   20.1176 C.ar        1 ROC      -0.0687
     32 N5         11.8833   18.8206   15.2112 N.4         1 ROC       0.2562
     33 C24        12.3160   20.2622   15.3791 C.3         1 ROC      -0.0008
     34 C25        10.8872   18.2941   16.2212 C.3         1 ROC       0.0688
     35 C26        11.2966   18.4410   17.6255 C.2         1 ROC       0.2251
     36 O5         10.5484   19.0223   18.4002 O.2         1 ROC      -0.3909
     37 C27        10.5957   16.7746   15.9648 C.3         1 ROC       0.0113
     38 C28        10.1456   16.4766   14.5026 C.3         1 ROC      -0.0261
     39 C29         9.9195   14.9564   14.2139 C.3         1 ROC      -0.0494
     40 C30        11.2312   14.1440   14.0472 C.3         1 ROC      -0.0528
     41 C31        12.1672   14.7867   12.9951 C.3         1 ROC      -0.0526
     42 C32        12.4473   16.2783   13.3100 C.3         1 ROC      -0.0451
     43 C33        11.1301   17.1009   13.4634 C.3         1 ROC       0.0024
     44 C34        11.4035   18.5919   13.8016 C.3         1 ROC      -0.0266
     45 N6         12.4226   17.8780   18.0506 N.am        1 ROC      -0.2771
     46 C35        12.8908   17.6497   19.4017 C.3         1 ROC       0.0448
     47 C36        14.3062   17.0099   19.2534 C.3         1 ROC      -0.0396
     48 C37        11.9523   16.6375   20.1313 C.3         1 ROC      -0.0396
     49 C38        13.0209   18.9577   20.2435 C.3         1 ROC      -0.0396
     50 H1         18.6130   26.6281   16.6010 H           1 ROC       0.0729
     51 H2         20.0121   27.3084   18.4231 H           1 ROC       0.0774
     52 H3         21.5156   26.7096   20.3490 H           1 ROC       0.0657
     53 H4         22.4795   25.0095   21.7706 H           1 ROC       0.0652
     54 H5         22.0150   22.6646   21.3618 H           1 ROC       0.0657
     55 H6         20.6156   22.0043   19.5002 H           1 ROC       0.0653
     56 H7         16.9194   25.6990   15.8612 H           1 ROC       0.1882
     57 H8         15.3565   25.3756   14.4476 H           1 ROC       0.0826
     58 H9         15.8780   23.4515   12.5667 H           1 ROC       0.0551
     59 H10        17.5157   23.7439   13.1066 H           1 ROC       0.0551
     60 H11        16.0122   26.2492   10.5320 H           1 ROC       0.1814
     61 H12        15.3637   24.7237   10.7856 H           1 ROC       0.1814
     62 H13        14.1568   19.5884   14.4583 H           1 ROC       0.0672
     63 H14        13.0927   20.9190   13.0521 H           1 ROC       0.2101
     64 H15        15.6455   20.2823   15.9026 H           1 ROC       0.0606
     65 H16        16.5973   22.1664   15.4119 H           1 ROC       0.1857
     66 H17        14.0990   20.4199   17.7576 H           1 ROC       0.0449
     67 H18        13.6459   22.0580   17.3317 H           1 ROC       0.0449
     68 H19        14.8604   23.8115   18.4363 H           1 ROC       0.0557
     69 H20        16.6395   19.9830   18.2433 H           1 ROC       0.0557
     70 H21        16.5126   24.4885   20.0558 H           1 ROC       0.0599
     71 H22        18.2672   20.6700   19.8879 H           1 ROC       0.0599
     72 H23        18.1896   22.9094   20.8263 H           1 ROC       0.0559
     73 H24        12.7239   18.2487   15.3423 H           1 ROC       0.2057
     74 H25        11.6048   20.9261   14.8716 H           1 ROC       0.0841
     75 H26        12.2341   20.5503   16.4211 H           1 ROC       0.0841
     76 H27         9.9437   18.8349   16.0758 H           1 ROC       0.1100
     77 H28         9.8068   16.4362   16.6459 H           1 ROC       0.0348
     78 H29        11.4920   16.1893   16.1838 H           1 ROC       0.0348
     79 H30         9.1720   16.9668   14.3743 H           1 ROC       0.0309
     80 H31         9.3429   14.8625   13.2883 H           1 ROC       0.0268
     81 H32         9.3204   14.5090   15.0110 H           1 ROC       0.0268
     82 H33        10.9898   13.1270   13.7330 H           1 ROC       0.0265
     83 H34        11.7518   14.0783   15.0034 H           1 ROC       0.0265
     84 H35        11.7131   14.7043   12.0029 H           1 ROC       0.0265
     85 H36        13.1149   14.2429   12.9740 H           1 ROC       0.0265
     86 H37        13.0474   16.6987   12.4966 H           1 ROC       0.0270
     87 H38        13.0412   16.3408   14.2247 H           1 ROC       0.0270
     88 H39        10.6329   17.0852   12.4867 H           1 ROC       0.0355
     89 H40        12.1334   18.9641   13.0794 H           1 ROC       0.0818
     90 H41        10.4812   19.1584   13.6348 H           1 ROC       0.0818
     91 H42        12.9658   17.4805   17.3537 H           1 ROC       0.1859
     92 H43        14.7488   16.8038   20.2290 H           1 ROC       0.0254
     93 H44        14.9776   17.6804   18.7123 H           1 ROC       0.0254
     94 H45        14.2523   16.0714   18.6972 H           1 ROC       0.0254
     95 H46        12.3820   16.3218   21.0851 H           1 ROC       0.0254
     96 H47        11.7933   15.7485   19.5179 H           1 ROC       0.0254
     97 H48        10.9799   17.0876   20.3350 H           1 ROC       0.0254
     98 H49        13.3475   18.7237   21.2596 H           1 ROC       0.0254
     99 H50        12.0697   19.4877   20.3100 H           1 ROC       0.0254
    100 H51        13.7587   19.6295   19.8054 H           1 ROC       0.0254
@<TRIPOS>BOND
     1     2     1   2
     2     2     4   1
     3    13     2  am
     4     4     3  ar
     5     3    12  ar
     6     4     5  ar
     7     5     6  ar
     8     6     7  ar
     9     7     8  ar
    10    12     7  ar
    11     8     9  ar
    12    10     9  ar
    13    11    10  ar
    14    12    11  ar
    15    14    13   1
    16    15    14   1
    17    14    17   1
    18    15    16   2
    19    24    15  am
    20    17    18   1
    21    18    19   2
    22    18    20  am
    23    21    22   1
    24    23    21   1
    25    21    33   1
    26    23    24   1
    27    23    25   1
    28    25    26   1
    29    26    27  ar
    30    26    28  ar
    31    27    29  ar
    32    28    30  ar
    33    29    31  ar
    34    30    31  ar
    35    33    32   1
    36    32    34   1
    37    32    44   1
    38    34    35   1
    39    34    37   1
    40    35    36   2
    41    35    45  am
    42    37    38   1
    43    38    39   1
    44    38    43   1
    45    39    40   1
    46    40    41   1
    47    41    42   1
    48    42    43   1
    49    43    44   1
    50    45    46   1
    51    46    47   1
    52    46    48   1
    53    46    49   1
    54     5    50   1
    55     6    51   1
    56     8    52   1
    57     9    53   1
    58    10    54   1
    59    11    55   1
    60    13    56   1
    61    14    57   1
    62    17    58   1
    63    17    59   1
    64    20    60   1
    65    20    61   1
    66    21    62   1
    67    22    63   1
    68    23    64   1
    69    24    65   1
    70    25    66   1
    71    25    67   1
    72    27    68   1
    73    28    69   1
    74    29    70   1
    75    30    71   1
    76    31    72   1
    77    32    73   1
    78    33    74   1
    79    33    75   1
    80    34    76   1
    81    37    77   1
    82    37    78   1
    83    38    79   1
    84    39    80   1
    85    39    81   1
    86    40    82   1
    87    40    83   1
    88    41    84   1
    89    41    85   1
    90    42    86   1
    91    42    87   1
    92    43    88   1
    93    44    89   1
    94    44    90   1
    95    45    91   1
    96    47    92   1
    97    47    93   1
    98    47    94   1
    99    48    95   1
   100    48    96   1
   101    48    97   1
   102    49    98   1
   103    49    99   1
   104    49   100   1
@<TRIPOS>SUBSTRUCTURE
     1  ROC      2

