@<TRIPOS>MOLECULE
3cyx_ligand_059
   100   104
SMALL
GAST_HUCK
****
This file was generated by PARSER (from files_GN.cpp)

@<TRIPOS>ATOM
      1 O1         11.6229   14.4076   10.3202 O.2         1 ROC      -0.3762
      2 C1         12.3464   14.4401   11.3089 C.2         1 ROC       0.2293
      3 N1         14.1000   15.1744    9.8889 N.ar        1 ROC      -0.2737
      4 C2         13.6740   14.8367   11.1397 C.ar        1 ROC       0.1219
      5 C3         14.6222   14.9155   12.1890 C.ar        1 ROC      -0.0136
      6 C4         15.9387   15.3427   11.9265 C.ar        1 ROC      -0.0314
      7 C5         16.3218   15.7004   10.6173 C.ar        1 ROC       0.0097
      8 C6         17.6195   16.1660   10.3025 C.ar        1 ROC      -0.0444
      9 C7         17.9458   16.5092    8.9768 C.ar        1 ROC      -0.0546
     10 C8         16.9862   16.3812    7.9541 C.ar        1 ROC      -0.0545
     11 C9R        15.6905   15.9232    8.2578 C.ar        1 ROC      -0.0370
     12 C10        15.3544   15.5896    9.5842 C.ar        1 ROC       0.0527
     13 N2         11.8456   14.1130   12.5012 N.am        1 ROC      -0.2600
     14 C11        10.4850   13.7493   12.8120 C.3         1 ROC       0.1473
     15 C12         9.9226   14.7383   13.7341 C.2         1 ROC       0.2045
     16 O2          9.3787   14.3670   14.7671 O.2         1 ROC      -0.3943
     17 C13        10.4363   12.2453   13.2528 C.3         1 ROC       0.0773
     18 C14        10.5477   11.9346   14.6718 C.2         1 ROC       0.1780
     19 O3          9.8001   11.1110   15.1773 O.2         1 ROC      -0.3970
     20 N3         11.4265   12.4958   15.4757 N.am        1 ROC      -0.3007
     21 C15        10.9626   17.2920   15.3336 C.3         1 ROC       0.1194
     22 O4         11.5569   16.0348   15.7065 O.3         1 ROC      -0.3840
     23 C16         9.7810   17.1585   14.3075 C.3         1 ROC       0.0823
     24 N4         10.0237   16.0348   13.4433 N.am        1 ROC      -0.2772
     25 C17         8.3289   17.2081   14.8856 C.3         1 ROC       0.0066
     26 C18         7.2591   17.1968   13.8430 C.ar        1 ROC      -0.0408
     27 C19         6.3613   16.1098   13.7269 C.ar        1 ROC      -0.0603
     28 C20         7.1134   18.2901   12.9518 C.ar        1 ROC      -0.0603
     29 C21         5.3633   16.1000   12.7366 C.ar        1 ROC      -0.0686
     30 C22         6.1079   18.2865   11.9656 C.ar        1 ROC      -0.0686
     31 C23         5.2413   17.1843   11.8507 C.ar        1 ROC      -0.0687
     32 N5         11.8812   18.4287   17.4209 N.4         1 ROC       0.2562
     33 C24        10.6292   18.0693   16.6383 C.3         1 ROC      -0.0008
     34 C25        12.2915   19.8811   17.2915 C.3         1 ROC       0.0688
     35 C26        12.5274   20.3058   15.9015 C.2         1 ROC       0.2251
     36 O5         11.8698   21.2376   15.4544 O.2         1 ROC      -0.3909
     37 C27        13.5608   20.2280   18.1297 C.3         1 ROC       0.0113
     38 C28        13.3901   19.8175   19.6202 C.3         1 ROC      -0.0261
     39 C29        14.6232   20.1665   20.5061 C.3         1 ROC      -0.0494
     40 C30        15.8353   19.2276   20.2792 C.3         1 ROC      -0.0528
     41 C31        15.4391   17.7348   20.4095 C.3         1 ROC      -0.0526
     42 C32        14.2377   17.3670   19.4983 C.3         1 ROC      -0.0451
     43 C33        13.0163   18.3062   19.7494 C.3         1 ROC       0.0024
     44 C34        11.7821   17.9803   18.8533 C.3         1 ROC      -0.0266
     45 N6         13.4316   19.6786   15.1563 N.am        1 ROC      -0.2771
     46 C35        13.8597   19.9503   13.7995 C.3         1 ROC       0.0448
     47 C36        14.2195   18.5674   13.1675 C.3         1 ROC      -0.0396
     48 C37        15.1199   20.8675   13.8166 C.3         1 ROC      -0.0396
     49 C38        12.7368   20.5948   12.9209 C.3         1 ROC      -0.0396
     50 H1         14.3699   14.6708   13.1485 H           1 ROC       0.0729
     51 H2         16.6091   15.3944   12.6985 H           1 ROC       0.0774
     52 H3         18.3290   16.2667   11.0316 H           1 ROC       0.0657
     53 H4         18.8849   16.8482    8.7517 H           1 ROC       0.0652
     54 H5         17.2288   16.6282    6.9920 H           1 ROC       0.0657
     55 H6         14.9954   15.8406    7.5113 H           1 ROC       0.0653
     56 H7         12.4550   14.1455   13.2523 H           1 ROC       0.1882
     57 H8          9.8640   13.8147   11.9118 H           1 ROC       0.0826
     58 H9         11.2314   11.7062   12.7307 H           1 ROC       0.0551
     59 H10         9.4967   11.8224   12.8844 H           1 ROC       0.0551
     60 H11        11.4720   12.2214   16.4066 H           1 ROC       0.1814
     61 H12        12.0108   13.1950   15.1588 H           1 ROC       0.1814
     62 H13        11.7542   17.8529   14.8090 H           1 ROC       0.0672
     63 H14        12.5244   16.2260   15.6932 H           1 ROC       0.2101
     64 H15         9.8693   18.0328   13.6641 H           1 ROC       0.0606
     65 H16        10.4029   16.2511   12.5776 H           1 ROC       0.1857
     66 H17         8.2027   18.1248   15.4642 H           1 ROC       0.0449
     67 H18         8.1925   16.3816   15.5870 H           1 ROC       0.0449
     68 H19         6.4265   15.3172   14.3658 H           1 ROC       0.0557
     69 H20         7.7292   19.1066   13.0248 H           1 ROC       0.0557
     70 H21         4.7281   15.3042   12.6572 H           1 ROC       0.0599
     71 H22         6.0121   19.0815   11.3296 H           1 ROC       0.0599
     72 H23         4.5175   17.1777   11.1263 H           1 ROC       0.0559
     73 H24        12.6558   17.8889   17.0217 H           1 ROC       0.2057
     74 H25         9.9480   17.4448   17.2241 H           1 ROC       0.0841
     75 H26        10.0618   18.9624   16.3674 H           1 ROC       0.0841
     76 H27        11.4638   20.4844   17.6984 H           1 ROC       0.1100
     77 H28        13.7282   21.3058   18.0831 H           1 ROC       0.0348
     78 H29        14.4305   19.7334   17.6996 H           1 ROC       0.0348
     79 H30        12.5507   20.3997   20.0174 H           1 ROC       0.0309
     80 H31        14.3277   20.0962   21.5586 H           1 ROC       0.0268
     81 H32        14.9273   21.2011   20.3278 H           1 ROC       0.0268
     82 H33        16.6051   19.4613   21.0199 H           1 ROC       0.0265
     83 H34        16.2647   19.4063   19.2893 H           1 ROC       0.0265
     84 H35        15.1816   17.5231   21.4515 H           1 ROC       0.0265
     85 H36        16.2962   17.1107   20.1463 H           1 ROC       0.0265
     86 H37        13.9496   16.3330   19.7052 H           1 ROC       0.0270
     87 H38        14.5478   17.4223   18.4536 H           1 ROC       0.0270
     88 H39        12.6978   18.1322   20.7871 H           1 ROC       0.0355
     89 H40        11.6136   16.9005   18.8852 H           1 ROC       0.0818
     90 H41        10.9080   18.4554   19.3128 H           1 ROC       0.0818
     91 H42        13.8837   18.9377   15.5894 H           1 ROC       0.1859
     92 H43        14.6535   18.6855   12.1666 H           1 ROC       0.0254
     93 H44        13.3194   17.9443   13.0834 H           1 ROC       0.0254
     94 H45        14.9412   18.0303   13.7873 H           1 ROC       0.0254
     95 H46        15.5082   21.0158   12.8052 H           1 ROC       0.0254
     96 H47        15.9066   20.4227   14.4274 H           1 ROC       0.0254
     97 H48        14.8737   21.8449   14.2354 H           1 ROC       0.0254
     98 H49        13.0136   20.5843   11.8571 H           1 ROC       0.0254
     99 H50        12.5642   21.6361   13.2076 H           1 ROC       0.0254
    100 H51        11.7961   20.0447   13.0354 H           1 ROC       0.0254
@<TRIPOS>BOND
     1     2     1   2
     2     2     4   1
     3    13     2  am
     4     4     3  ar
     5     3    12  ar
     6     4     5  ar
     7     5     6  ar
     8     6     7  ar
     9     7     8  ar
    10    12     7  ar
    11     8     9  ar
    12    10     9  ar
    13    11    10  ar
    14    12    11  ar
    15    14    13   1
    16    15    14   1
    17    14    17   1
    18    15    16   2
    19    24    15  am
    20    17    18   1
    21    18    19   2
    22    18    20  am
    23    21    22   1
    24    23    21   1
    25    21    33   1
    26    23    24   1
    27    23    25   1
    28    25    26   1
    29    26    27  ar
    30    26    28  ar
    31    27    29  ar
    32    28    30  ar
    33    29    31  ar
    34    30    31  ar
    35    33    32   1
    36    32    34   1
    37    32    44   1
    38    34    35   1
    39    34    37   1
    40    35    36   2
    41    35    45  am
    42    37    38   1
    43    38    39   1
    44    38    43   1
    45    39    40   1
    46    40    41   1
    47    41    42   1
    48    42    43   1
    49    43    44   1
    50    45    46   1
    51    46    47   1
    52    46    48   1
    53    46    49   1
    54     5    50   1
    55     6    51   1
    56     8    52   1
    57     9    53   1
    58    10    54   1
    59    11    55   1
    60    13    56   1
    61    14    57   1
    62    17    58   1
    63    17    59   1
    64    20    60   1
    65    20    61   1
    66    21    62   1
    67    22    63   1
    68    23    64   1
    69    24    65   1
    70    25    66   1
    71    25    67   1
    72    27    68   1
    73    28    69   1
    74    29    70   1
    75    30    71   1
    76    31    72   1
    77    32    73   1
    78    33    74   1
    79    33    75   1
    80    34    76   1
    81    37    77   1
    82    37    78   1
    83    38    79   1
    84    39    80   1
    85    39    81   1
    86    40    82   1
    87    40    83   1
    88    41    84   1
    89    41    85   1
    90    42    86   1
    91    42    87   1
    92    43    88   1
    93    44    89   1
    94    44    90   1
    95    45    91   1
    96    47    92   1
    97    47    93   1
    98    47    94   1
    99    48    95   1
   100    48    96   1
   101    48    97   1
   102    49    98   1
   103    49    99   1
   104    49   100   1
@<TRIPOS>SUBSTRUCTURE
     1  ROC      2

