@<TRIPOS>MOLECULE
3cyx_ligand_043
   100   104
SMALL
GAST_HUCK
****
This file was generated by PARSER (from files_GN.cpp)

@<TRIPOS>ATOM
      1 O1         11.2205   13.8272   16.4519 O.2         1 ROC      -0.3762
      2 C1         10.3201   13.0280   16.2158 C.2         1 ROC       0.2293
      3 N1          9.6395   10.8288   15.6049 N.ar        1 ROC      -0.2737
      4 C2         10.6365   11.7019   15.9261 C.ar        1 ROC       0.1219
      5 C3         11.9645   11.2066   15.9360 C.ar        1 ROC      -0.0136
      6 C4         12.2169    9.8597   15.6194 C.ar        1 ROC      -0.0314
      7 C5         11.1516    8.9947   15.2950 C.ar        1 ROC       0.0097
      8 C6         11.3534    7.6336   14.9753 C.ar        1 ROC      -0.0444
      9 C7         10.2559    6.8113   14.6552 C.ar        1 ROC      -0.0546
     10 C8          8.9528    7.3426   14.6539 C.ar        1 ROC      -0.0545
     11 C9R         8.7406    8.6962   14.9726 C.ar        1 ROC      -0.0370
     12 C10         9.8342    9.5221   15.2949 C.ar        1 ROC       0.0527
     13 N2          9.0512   13.4374   16.2026 N.am        1 ROC      -0.2600
     14 C11         8.5471   14.7755   16.4028 C.3         1 ROC       0.1473
     15 C12         8.9511   15.7251   15.3584 C.2         1 ROC       0.2045
     16 O2          9.6708   15.3608   14.4364 O.2         1 ROC      -0.3943
     17 C13         8.8296   15.2761   17.8688 C.3         1 ROC       0.0773
     18 C14         7.6985   15.0725   18.7562 C.2         1 ROC       0.1780
     19 O3          7.5772   14.0378   19.3910 O.2         1 ROC      -0.3970
     20 N3          6.7377   15.9643   18.8345 N.am        1 ROC      -0.3007
     21 C15         9.6432   19.0925   15.2815 C.3         1 ROC       0.1194
     22 O4          9.6701   20.3347   14.5725 O.3         1 ROC      -0.3840
     23 C16         8.7842   18.0533   14.4847 C.3         1 ROC       0.0823
     24 N4          8.4783   16.9677   15.3833 N.am        1 ROC      -0.2772
     25 C17         7.4400   18.6313   13.8952 C.3         1 ROC       0.0066
     26 C18         7.3140   18.6790   12.4031 C.ar        1 ROC      -0.0408
     27 C19         6.0569   18.4644   11.7852 C.ar        1 ROC      -0.0603
     28 C20         8.4100   19.0154   11.5703 C.ar        1 ROC      -0.0603
     29 C21         5.9055   18.5430   10.3895 C.ar        1 ROC      -0.0686
     30 C22         8.2707   19.0644   10.1693 C.ar        1 ROC      -0.0686
     31 C23         7.0180   18.8215    9.5783 C.ar        1 ROC      -0.0687
     32 N5         12.3040   19.1949   14.9495 N.4         1 ROC       0.2562
     33 C24        11.0974   18.5957   15.6409 C.3         1 ROC      -0.0008
     34 C25        12.3213   18.9904   13.4498 C.3         1 ROC       0.0688
     35 C26        12.4484   17.5775   13.0675 C.2         1 ROC       0.2251
     36 O5         13.3530   16.9161   13.5610 O.2         1 ROC      -0.3909
     37 C27        13.4430   19.7909   12.7233 C.3         1 ROC       0.0113
     38 C28        13.4296   21.2912   13.1363 C.3         1 ROC      -0.0261
     39 C29        14.4619   22.1575   12.3491 C.3         1 ROC      -0.0494
     40 C30        15.9283   21.9218   12.7928 C.3         1 ROC      -0.0528
     41 C31        16.0939   22.0757   14.3266 C.3         1 ROC      -0.0526
     42 C32        15.1054   21.1742   15.1132 C.3         1 ROC      -0.0451
     43 C33        13.6328   21.4387   14.6756 C.3         1 ROC       0.0024
     44 C34        12.5880   20.5892   15.4543 C.3         1 ROC      -0.0266
     45 N6         11.6775   17.0868   12.0967 N.am        1 ROC      -0.2771
     46 C35        11.6880   15.8060   11.4155 C.3         1 ROC       0.0448
     47 C36        10.2022   15.5007   11.0365 C.3         1 ROC      -0.0396
     48 C37        12.2515   14.5933   12.2272 C.3         1 ROC      -0.0396
     49 C38        12.5242   15.9918   10.1138 C.3         1 ROC      -0.0396
     50 H1         12.7513   11.8129   16.1776 H           1 ROC       0.0729
     51 H2         13.1803    9.5166   15.6271 H           1 ROC       0.0774
     52 H3         12.2971    7.2324   14.9731 H           1 ROC       0.0657
     53 H4         10.4061    5.8274   14.4253 H           1 ROC       0.0652
     54 H5          8.1590    6.7428   14.4202 H           1 ROC       0.0657
     55 H6          7.7901    9.0745   14.9698 H           1 ROC       0.0653
     56 H7          8.3854   12.7599   16.0091 H           1 ROC       0.1882
     57 H8          7.4646   14.6837   16.2687 H           1 ROC       0.0826
     58 H9          9.0854   16.3408   17.8866 H           1 ROC       0.0551
     59 H10         9.6993   14.7658   18.2942 H           1 ROC       0.0551
     60 H11         5.9664   15.8046   19.4013 H           1 ROC       0.1814
     61 H12         6.8065   16.7881   18.3282 H           1 ROC       0.1814
     62 H13         9.1268   19.2950   16.2266 H           1 ROC       0.0672
     63 H14         8.9562   20.8903   14.9922 H           1 ROC       0.2101
     64 H15         9.3949   17.6956   13.6520 H           1 ROC       0.0606
     65 H16         7.9050   17.1919   16.1319 H           1 ROC       0.1857
     66 H17         7.2692   19.6501   14.2466 H           1 ROC       0.0449
     67 H18         6.5972   18.0566   14.3010 H           1 ROC       0.0449
     68 H19         5.2308   18.2671   12.3525 H           1 ROC       0.0557
     69 H20         9.3222   19.2268   11.9776 H           1 ROC       0.0557
     70 H21         4.9886   18.3938    9.9646 H           1 ROC       0.0599
     71 H22         9.0782   19.2815    9.5767 H           1 ROC       0.0599
     72 H23         6.9151   18.8602    8.5619 H           1 ROC       0.0559
     73 H24        13.0935   18.6379   15.3000 H           1 ROC       0.2057
     74 H25        11.1598   17.5134   15.5047 H           1 ROC       0.0841
     75 H26        11.2395   18.7314   16.7199 H           1 ROC       0.0841
     76 H27        11.3853   19.3781   13.0457 H           1 ROC       0.1100
     77 H28        13.2872   19.7240   11.6389 H           1 ROC       0.0348
     78 H29        14.4197   19.3538   12.9402 H           1 ROC       0.0348
     79 H30        12.4364   21.6859   12.8859 H           1 ROC       0.0309
     80 H31        14.2215   23.2114   12.5068 H           1 ROC       0.0268
     81 H32        14.3715   21.9630   11.2784 H           1 ROC       0.0268
     82 H33        16.5725   22.6472   12.2888 H           1 ROC       0.0265
     83 H34        16.2489   20.9239   12.4859 H           1 ROC       0.0265
     84 H35        15.9246   23.1204   14.6018 H           1 ROC       0.0265
     85 H36        17.1174   21.8229   14.6108 H           1 ROC       0.0265
     86 H37        15.2154   21.3931   16.1796 H           1 ROC       0.0270
     87 H38        15.3681   20.1234   14.9650 H           1 ROC       0.0270
     88 H39        13.4307   22.4863   14.9286 H           1 ROC       0.0355
     89 H40        12.9190   20.5048   16.4934 H           1 ROC       0.0818
     90 H41        11.6771   21.1817   15.4822 H           1 ROC       0.0818
     91 H42        11.0611   17.7316   11.7077 H           1 ROC       0.1859
     92 H43        10.1253   14.5587   10.4849 H           1 ROC       0.0254
     93 H44         9.7877   16.2948   10.4095 H           1 ROC       0.0254
     94 H45         9.5882   15.4213   11.9361 H           1 ROC       0.0254
     95 H46        12.0669   13.6549   11.6991 H           1 ROC       0.0254
     96 H47        11.7671   14.5332   13.2066 H           1 ROC       0.0254
     97 H48        13.3316   14.6879   12.3814 H           1 ROC       0.0254
     98 H49        12.5111   15.0820    9.5079 H           1 ROC       0.0254
     99 H50        13.5640   16.2271   10.3604 H           1 ROC       0.0254
    100 H51        12.1238   16.8123    9.5062 H           1 ROC       0.0254
@<TRIPOS>BOND
     1     2     1   2
     2     2     4   1
     3    13     2  am
     4     4     3  ar
     5     3    12  ar
     6     4     5  ar
     7     5     6  ar
     8     6     7  ar
     9     7     8  ar
    10    12     7  ar
    11     8     9  ar
    12    10     9  ar
    13    11    10  ar
    14    12    11  ar
    15    14    13   1
    16    15    14   1
    17    14    17   1
    18    15    16   2
    19    24    15  am
    20    17    18   1
    21    18    19   2
    22    18    20  am
    23    21    22   1
    24    23    21   1
    25    21    33   1
    26    23    24   1
    27    23    25   1
    28    25    26   1
    29    26    27  ar
    30    26    28  ar
    31    27    29  ar
    32    28    30  ar
    33    29    31  ar
    34    30    31  ar
    35    33    32   1
    36    32    34   1
    37    32    44   1
    38    34    35   1
    39    34    37   1
    40    35    36   2
    41    35    45  am
    42    37    38   1
    43    38    39   1
    44    38    43   1
    45    39    40   1
    46    40    41   1
    47    41    42   1
    48    42    43   1
    49    43    44   1
    50    45    46   1
    51    46    47   1
    52    46    48   1
    53    46    49   1
    54     5    50   1
    55     6    51   1
    56     8    52   1
    57     9    53   1
    58    10    54   1
    59    11    55   1
    60    13    56   1
    61    14    57   1
    62    17    58   1
    63    17    59   1
    64    20    60   1
    65    20    61   1
    66    21    62   1
    67    22    63   1
    68    23    64   1
    69    24    65   1
    70    25    66   1
    71    25    67   1
    72    27    68   1
    73    28    69   1
    74    29    70   1
    75    30    71   1
    76    31    72   1
    77    32    73   1
    78    33    74   1
    79    33    75   1
    80    34    76   1
    81    37    77   1
    82    37    78   1
    83    38    79   1
    84    39    80   1
    85    39    81   1
    86    40    82   1
    87    40    83   1
    88    41    84   1
    89    41    85   1
    90    42    86   1
    91    42    87   1
    92    43    88   1
    93    44    89   1
    94    44    90   1
    95    45    91   1
    96    47    92   1
    97    47    93   1
    98    47    94   1
    99    48    95   1
   100    48    96   1
   101    48    97   1
   102    49    98   1
   103    49    99   1
   104    49   100   1
@<TRIPOS>SUBSTRUCTURE
     1  ROC      2

