@<TRIPOS>MOLECULE
3cyx_ligand_027
   100   104
SMALL
GAST_HUCK
****
This file was generated by PARSER (from files_GN.cpp)

@<TRIPOS>ATOM
      1 O1         21.8146   28.2184   18.3799 O.2         1 ROC      -0.3762
      2 C1         22.4167   27.1729   18.1624 C.2         1 ROC       0.2293
      3 N1         23.5739   25.2717   18.9789 N.ar        1 ROC      -0.2737
      4 C2         23.0640   26.5155   19.2036 C.ar        1 ROC       0.1219
      5 C3         23.1958   27.0591   20.5030 C.ar        1 ROC      -0.0136
      6 C4         23.8271   26.3103   21.5172 C.ar        1 ROC      -0.0314
      7 C5         24.3297   25.0239   21.2391 C.ar        1 ROC       0.0097
      8 C6         24.9609   24.2257   22.2204 C.ar        1 ROC      -0.0444
      9 C7         25.4424   22.9454   21.8882 C.ar        1 ROC      -0.0546
     10 C8         25.2946   22.4487   20.5796 C.ar        1 ROC      -0.0545
     11 C9R        24.6682   23.2332   19.5936 C.ar        1 ROC      -0.0370
     12 C10        24.1881   24.5158   19.9209 C.ar        1 ROC       0.0527
     13 N2         22.4102   26.6500   16.9393 N.am        1 ROC      -0.2600
     14 C11        21.7300   27.1683   15.7862 C.3         1 ROC       0.1473
     15 C12        20.3036   26.8918   15.9265 C.2         1 ROC       0.2045
     16 O2         19.5465   27.8369   16.1134 O.2         1 ROC      -0.3943
     17 C13        22.3856   26.5818   14.4954 C.3         1 ROC       0.0773
     18 C14        21.6617   26.8670   13.2696 C.2         1 ROC       0.1780
     19 O3         20.7476   26.1380   12.9127 O.2         1 ROC      -0.3970
     20 N3         21.9684   27.8876   12.5039 N.am        1 ROC      -0.3007
     21 C15        18.3230   24.1902   17.1106 C.3         1 ROC       0.1194
     22 O4         18.9565   22.9511   16.7975 O.3         1 ROC      -0.3840
     23 C16        18.4918   25.1860   15.9098 C.3         1 ROC       0.0823
     24 N4         19.8600   25.6404   15.8617 N.am        1 ROC      -0.2772
     25 C17        18.1115   24.5179   14.5418 C.3         1 ROC       0.0066
     26 C18        17.5982   25.3513   13.4166 C.ar        1 ROC      -0.0408
     27 C19        17.6921   26.7626   13.3507 C.ar        1 ROC      -0.0603
     28 C20        16.9564   24.6818   12.3454 C.ar        1 ROC      -0.0603
     29 C21        17.1414   27.4760   12.2707 C.ar        1 ROC      -0.0686
     30 C22        16.3443   25.3954   11.3034 C.ar        1 ROC      -0.0686
     31 C23        16.4436   26.7934   11.2615 C.ar        1 ROC      -0.0687
     32 N5         16.3364   22.7076   18.1329 N.4         1 ROC       0.2562
     33 C24        16.8261   24.0155   17.5634 C.3         1 ROC      -0.0008
     34 C25        16.1305   21.5806   17.1446 C.3         1 ROC       0.0688
     35 C26        15.2018   21.8977   16.0575 C.2         1 ROC       0.2251
     36 O5         14.1260   22.4052   16.3506 O.2         1 ROC      -0.3909
     37 C27        15.5641   20.2965   17.8359 C.3         1 ROC       0.0113
     38 C28        16.3829   19.8803   19.0878 C.3         1 ROC      -0.0261
     39 C29        15.7965   18.6162   19.7882 C.3         1 ROC      -0.0494
     40 C30        14.4923   18.9029   20.5787 C.3         1 ROC      -0.0528
     41 C31        14.6650   20.0891   21.5632 C.3         1 ROC      -0.0526
     42 C32        15.2082   21.3611   20.8581 C.3         1 ROC      -0.0451
     43 C33        16.5342   21.0675   20.0879 C.3         1 ROC       0.0024
     44 C34        17.1086   22.3155   19.3573 C.3         1 ROC      -0.0266
     45 N6         15.4354   21.4482   14.8276 N.am        1 ROC      -0.2771
     46 C35        14.5332   21.3582   13.7009 C.3         1 ROC       0.0448
     47 C36        13.9293   22.7481   13.3172 C.3         1 ROC      -0.0396
     48 C37        13.3879   20.3479   14.0137 C.3         1 ROC      -0.0396
     49 C38        15.3674   20.8109   12.4987 C.3         1 ROC      -0.0396
     50 H1         22.8367   27.9908   20.7279 H           1 ROC       0.0729
     51 H2         23.9096   26.7105   22.4545 H           1 ROC       0.0774
     52 H3         25.0741   24.5704   23.1764 H           1 ROC       0.0657
     53 H4         25.8998   22.3719   22.6012 H           1 ROC       0.0652
     54 H5         25.6416   21.5157   20.3440 H           1 ROC       0.0657
     55 H6         24.5586   22.8655   18.6442 H           1 ROC       0.0653
     56 H7         22.8606   25.7970   16.8213 H           1 ROC       0.1882
     57 H8         21.8973   28.2524   15.7481 H           1 ROC       0.0826
     58 H9         22.4993   25.4972   14.5857 H           1 ROC       0.0551
     59 H10        23.3986   26.9896   14.4147 H           1 ROC       0.0551
     60 H11        21.4744   28.0534   11.6869 H           1 ROC       0.1814
     61 H12        22.6711   28.4949   12.7713 H           1 ROC       0.1814
     62 H13        18.8706   24.5811   17.9740 H           1 ROC       0.0672
     63 H14        19.8970   23.1847   16.6118 H           1 ROC       0.2101
     64 H15        17.8125   26.0227   16.0974 H           1 ROC       0.0606
     65 H16        20.5365   24.9503   15.7512 H           1 ROC       0.1857
     66 H17        17.3341   23.7775   14.7459 H           1 ROC       0.0449
     67 H18        18.9741   23.9588   14.1707 H           1 ROC       0.0449
     68 H19        18.1674   27.2936   14.0746 H           1 ROC       0.0557
     69 H20        16.8969   23.6641   12.3391 H           1 ROC       0.0557
     70 H21        17.2348   28.4933   12.2250 H           1 ROC       0.0599
     71 H22        15.8242   24.8995   10.5782 H           1 ROC       0.0599
     72 H23        16.0168   27.3149   10.4956 H           1 ROC       0.0559
     73 H24        15.3986   22.9145   18.4747 H           1 ROC       0.2057
     74 H25        16.1556   24.2927   16.7461 H           1 ROC       0.0841
     75 H26        16.6415   24.7781   18.3285 H           1 ROC       0.0841
     76 H27        17.1044   21.3155   16.7245 H           1 ROC       0.1100
     77 H28        15.5742   19.4648   17.1220 H           1 ROC       0.0348
     78 H29        14.5237   20.4603   18.1223 H           1 ROC       0.0348
     79 H30        17.3828   19.6170   18.7304 H           1 ROC       0.0309
     80 H31        16.5393   18.2241   20.4862 H           1 ROC       0.0268
     81 H32        15.6083   17.8357   19.0458 H           1 ROC       0.0268
     82 H33        14.2121   18.0064   21.1390 H           1 ROC       0.0265
     83 H34        13.6775   19.1217   19.8844 H           1 ROC       0.0265
     84 H35        15.3554   19.7960   22.3591 H           1 ROC       0.0265
     85 H36        13.7009   20.3139   22.0252 H           1 ROC       0.0265
     86 H37        15.3861   22.1286   21.6155 H           1 ROC       0.0270
     87 H38        14.4488   21.7448   20.1738 H           1 ROC       0.0270
     88 H39        17.2776   20.7723   20.8360 H           1 ROC       0.0355
     89 H40        17.1150   23.1481   20.0676 H           1 ROC       0.0818
     90 H41        18.1502   22.1103   19.0951 H           1 ROC       0.0818
     91 H42        16.3084   21.0494   14.6917 H           1 ROC       0.1859
     92 H43        13.4300   22.7050   12.3436 H           1 ROC       0.0254
     93 H44        14.7091   23.5109   13.2700 H           1 ROC       0.0254
     94 H45        13.1863   23.0757   14.0503 H           1 ROC       0.0254
     95 H46        12.7469   20.2083   13.1427 H           1 ROC       0.0254
     96 H47        12.7665   20.7030   14.8351 H           1 ROC       0.0254
     97 H48        13.8033   19.3814   14.2985 H           1 ROC       0.0254
     98 H49        14.7551   20.7271   11.5983 H           1 ROC       0.0254
     99 H50        15.7668   19.8216   12.7281 H           1 ROC       0.0254
    100 H51        16.2100   21.4669   12.2765 H           1 ROC       0.0254
@<TRIPOS>BOND
     1     2     1   2
     2     2     4   1
     3    13     2  am
     4     4     3  ar
     5     3    12  ar
     6     4     5  ar
     7     5     6  ar
     8     6     7  ar
     9     7     8  ar
    10    12     7  ar
    11     8     9  ar
    12    10     9  ar
    13    11    10  ar
    14    12    11  ar
    15    14    13   1
    16    15    14   1
    17    14    17   1
    18    15    16   2
    19    24    15  am
    20    17    18   1
    21    18    19   2
    22    18    20  am
    23    21    22   1
    24    23    21   1
    25    21    33   1
    26    23    24   1
    27    23    25   1
    28    25    26   1
    29    26    27  ar
    30    26    28  ar
    31    27    29  ar
    32    28    30  ar
    33    29    31  ar
    34    30    31  ar
    35    33    32   1
    36    32    34   1
    37    32    44   1
    38    34    35   1
    39    34    37   1
    40    35    36   2
    41    35    45  am
    42    37    38   1
    43    38    39   1
    44    38    43   1
    45    39    40   1
    46    40    41   1
    47    41    42   1
    48    42    43   1
    49    43    44   1
    50    45    46   1
    51    46    47   1
    52    46    48   1
    53    46    49   1
    54     5    50   1
    55     6    51   1
    56     8    52   1
    57     9    53   1
    58    10    54   1
    59    11    55   1
    60    13    56   1
    61    14    57   1
    62    17    58   1
    63    17    59   1
    64    20    60   1
    65    20    61   1
    66    21    62   1
    67    22    63   1
    68    23    64   1
    69    24    65   1
    70    25    66   1
    71    25    67   1
    72    27    68   1
    73    28    69   1
    74    29    70   1
    75    30    71   1
    76    31    72   1
    77    32    73   1
    78    33    74   1
    79    33    75   1
    80    34    76   1
    81    37    77   1
    82    37    78   1
    83    38    79   1
    84    39    80   1
    85    39    81   1
    86    40    82   1
    87    40    83   1
    88    41    84   1
    89    41    85   1
    90    42    86   1
    91    42    87   1
    92    43    88   1
    93    44    89   1
    94    44    90   1
    95    45    91   1
    96    47    92   1
    97    47    93   1
    98    47    94   1
    99    48    95   1
   100    48    96   1
   101    48    97   1
   102    49    98   1
   103    49    99   1
   104    49   100   1
@<TRIPOS>SUBSTRUCTURE
     1  ROC      2

