@<TRIPOS>MOLECULE
3cyx_ligand_045
   100   104
SMALL
GAST_HUCK
****
This file was generated by PARSER (from files_GN.cpp)

@<TRIPOS>ATOM
      1 O1         21.3597   27.7772   17.6569 O.2         1 ROC      -0.3762
      2 C1         22.3103   27.0861   18.0064 C.2         1 ROC       0.2293
      3 N1         24.4713   26.1859   17.6013 N.ar        1 ROC      -0.2737
      4 C2         23.4318   26.9680   17.1896 C.ar        1 ROC       0.1219
      5 C3         23.5695   27.6420   15.9526 C.ar        1 ROC      -0.0136
      6 C4         24.7457   27.4932   15.1939 C.ar        1 ROC      -0.0314
      7 C5         25.7960   26.6775   15.6645 C.ar        1 ROC       0.0097
      8 C6         26.9956   26.4932   14.9422 C.ar        1 ROC      -0.0444
      9 C7         28.0119   25.6669   15.4582 C.ar        1 ROC      -0.0546
     10 C8         27.8373   25.0171   16.6963 C.ar        1 ROC      -0.0545
     11 C9R        26.6433   25.1892   17.4198 C.ar        1 ROC      -0.0370
     12 C10        25.6239   26.0140   16.9090 C.ar        1 ROC       0.0527
     13 N2         22.2979   26.4899   19.1927 N.am        1 ROC      -0.2600
     14 C11        21.3408   26.5818   20.2640 C.3         1 ROC       0.1473
     15 C12        20.1803   25.6957   20.0968 C.2         1 ROC       0.2045
     16 O2         19.8645   25.0309   21.0752 O.2         1 ROC      -0.3943
     17 C13        20.9916   28.0511   20.6612 C.3         1 ROC       0.0773
     18 C14        20.5154   28.2110   22.0248 C.2         1 ROC       0.1780
     19 O3         19.3945   28.6463   22.2522 O.2         1 ROC      -0.3970
     20 N3         21.3002   27.9515   23.0491 N.am        1 ROC      -0.3007
     21 C15        17.2308   24.4862   19.1833 C.3         1 ROC       0.1194
     22 O4         17.3237   24.6336   20.6011 O.3         1 ROC      -0.3840
     23 C16        18.6544   24.4578   18.5043 C.3         1 ROC       0.0823
     24 N4         19.5712   25.5069   18.9238 N.am        1 ROC      -0.2772
     25 C17        19.3686   23.0644   18.3421 C.3         1 ROC       0.0066
     26 C18        20.1483   22.5457   19.5013 C.ar        1 ROC      -0.0408
     27 C19        21.5035   22.9227   19.6958 C.ar        1 ROC      -0.0603
     28 C20        19.5521   21.6687   20.4387 C.ar        1 ROC      -0.0603
     29 C21        22.2161   22.4883   20.8281 C.ar        1 ROC      -0.0686
     30 C22        20.2604   21.2439   21.5754 C.ar        1 ROC      -0.0686
     31 C23        21.5831   21.6751   21.7833 C.ar        1 ROC      -0.0687
     32 N5         15.8129   22.8479   17.5616 N.4         1 ROC       0.2562
     33 C24        16.2274   23.3030   18.9473 C.3         1 ROC      -0.0008
     34 C25        14.7113   21.7963   17.6014 C.3         1 ROC       0.0688
     35 C26        15.0235   20.6116   18.4116 C.2         1 ROC       0.2251
     36 O5         15.9644   19.8941   18.0822 O.2         1 ROC      -0.3909
     37 C27        14.2931   21.3138   16.1757 C.3         1 ROC       0.0113
     38 C28        13.8792   22.4991   15.2602 C.3         1 ROC      -0.0261
     39 C29        13.4778   22.0448   13.8212 C.3         1 ROC      -0.0494
     40 C30        14.6896   21.6373   12.9441 C.3         1 ROC      -0.0528
     41 C31        15.7698   22.7451   12.9171 C.3         1 ROC      -0.0526
     42 C32        16.2132   23.1645   14.3436 C.3         1 ROC      -0.0451
     43 C33        14.9988   23.5879   15.2305 C.3         1 ROC       0.0024
     44 C34        15.4136   23.9985   16.6782 C.3         1 ROC      -0.0266
     45 N6         14.2673   20.3280   19.4694 N.am        1 ROC      -0.2771
     46 C35        14.2820   19.1577   20.3189 C.3         1 ROC       0.0448
     47 C36        15.6900   18.9399   20.9550 C.3         1 ROC      -0.0396
     48 C37        13.8368   17.8881   19.5256 C.3         1 ROC      -0.0396
     49 C38        13.2474   19.4346   21.4558 C.3         1 ROC      -0.0396
     50 H1         22.8248   28.2490   15.6004 H           1 ROC       0.0729
     51 H2         24.8299   27.9861   14.3013 H           1 ROC       0.0774
     52 H3         27.1378   26.9562   14.0398 H           1 ROC       0.0657
     53 H4         28.8818   25.5381   14.9365 H           1 ROC       0.0652
     54 H5         28.5775   24.4194   17.0688 H           1 ROC       0.0657
     55 H6         26.5200   24.7115   18.3163 H           1 ROC       0.0653
     56 H7         23.0945   25.9757   19.4066 H           1 ROC       0.1882
     57 H8         21.9231   26.1800   21.1033 H           1 ROC       0.0826
     58 H9         20.2587   28.4573   19.9564 H           1 ROC       0.0551
     59 H10        21.8995   28.6539   20.5707 H           1 ROC       0.0551
     60 H11        20.9782   28.0911   23.9535 H           1 ROC       0.1814
     61 H12        22.2108   27.6425   22.9059 H           1 ROC       0.1814
     62 H13        16.7354   25.3969   18.8332 H           1 ROC       0.0672
     63 H14        17.6135   25.5581   20.7326 H           1 ROC       0.2101
     64 H15        18.4442   24.7347   17.4638 H           1 ROC       0.0606
     65 H16        19.8591   26.0991   18.2102 H           1 ROC       0.1857
     66 H17        20.0555   23.1441   17.4915 H           1 ROC       0.0449
     67 H18        18.6296   22.3134   18.0410 H           1 ROC       0.0449
     68 H19        21.9747   23.5290   19.0210 H           1 ROC       0.0557
     69 H20        18.5883   21.3434   20.3041 H           1 ROC       0.0557
     70 H21        23.1827   22.7877   20.9737 H           1 ROC       0.0599
     71 H22        19.8152   20.6200   22.2492 H           1 ROC       0.0599
     72 H23        22.0901   21.3805   22.6174 H           1 ROC       0.0559
     73 H24        16.6320   22.4053   17.1380 H           1 ROC       0.2057
     74 H25        15.3133   23.5825   19.4905 H           1 ROC       0.0841
     75 H26        16.6524   22.4359   19.4665 H           1 ROC       0.0841
     76 H27        13.8192   22.2756   18.0318 H           1 ROC       0.1100
     77 H28        13.4448   20.6281   16.2621 H           1 ROC       0.0348
     78 H29        15.1225   20.7630   15.7236 H           1 ROC       0.0348
     79 H30        12.9859   22.9516   15.7084 H           1 ROC       0.0309
     80 H31        12.9563   22.8728   13.3305 H           1 ROC       0.0268
     81 H32        12.7732   21.2115   13.8788 H           1 ROC       0.0268
     82 H33        14.3426   21.4436   11.9252 H           1 ROC       0.0265
     83 H34        15.1231   20.7092   13.3238 H           1 ROC       0.0265
     84 H35        15.3756   23.6172   12.3878 H           1 ROC       0.0265
     85 H36        16.6356   22.3817   12.3609 H           1 ROC       0.0265
     86 H37        16.9087   24.0040   14.2554 H           1 ROC       0.0270
     87 H38        16.7549   22.3387   14.8096 H           1 ROC       0.0270
     88 H39        14.5707   24.4844   14.7699 H           1 ROC       0.0355
     89 H40        16.2372   24.7108   16.5961 H           1 ROC       0.0818
     90 H41        14.5716   24.5284   17.1449 H           1 ROC       0.0818
     91 H42        13.5954   20.9970   19.6955 H           1 ROC       0.1859
     92 H43        15.6421   18.1902   21.7525 H           1 ROC       0.0254
     93 H44        16.0678   19.8749   21.3762 H           1 ROC       0.0254
     94 H45        16.4012   18.5853   20.2079 H           1 ROC       0.0254
     95 H46        13.8153   17.0100   20.1766 H           1 ROC       0.0254
     96 H47        14.5221   17.6778   18.7005 H           1 ROC       0.0254
     97 H48        12.8367   18.0266   19.1058 H           1 ROC       0.0254
     98 H49        13.1778   18.5875   22.1423 H           1 ROC       0.0254
     99 H50        12.2524   19.6174   21.0378 H           1 ROC       0.0254
    100 H51        13.5417   20.3166   22.0311 H           1 ROC       0.0254
@<TRIPOS>BOND
     1     2     1   2
     2     2     4   1
     3    13     2  am
     4     4     3  ar
     5     3    12  ar
     6     4     5  ar
     7     5     6  ar
     8     6     7  ar
     9     7     8  ar
    10    12     7  ar
    11     8     9  ar
    12    10     9  ar
    13    11    10  ar
    14    12    11  ar
    15    14    13   1
    16    15    14   1
    17    14    17   1
    18    15    16   2
    19    24    15  am
    20    17    18   1
    21    18    19   2
    22    18    20  am
    23    21    22   1
    24    23    21   1
    25    21    33   1
    26    23    24   1
    27    23    25   1
    28    25    26   1
    29    26    27  ar
    30    26    28  ar
    31    27    29  ar
    32    28    30  ar
    33    29    31  ar
    34    30    31  ar
    35    33    32   1
    36    32    34   1
    37    32    44   1
    38    34    35   1
    39    34    37   1
    40    35    36   2
    41    35    45  am
    42    37    38   1
    43    38    39   1
    44    38    43   1
    45    39    40   1
    46    40    41   1
    47    41    42   1
    48    42    43   1
    49    43    44   1
    50    45    46   1
    51    46    47   1
    52    46    48   1
    53    46    49   1
    54     5    50   1
    55     6    51   1
    56     8    52   1
    57     9    53   1
    58    10    54   1
    59    11    55   1
    60    13    56   1
    61    14    57   1
    62    17    58   1
    63    17    59   1
    64    20    60   1
    65    20    61   1
    66    21    62   1
    67    22    63   1
    68    23    64   1
    69    24    65   1
    70    25    66   1
    71    25    67   1
    72    27    68   1
    73    28    69   1
    74    29    70   1
    75    30    71   1
    76    31    72   1
    77    32    73   1
    78    33    74   1
    79    33    75   1
    80    34    76   1
    81    37    77   1
    82    37    78   1
    83    38    79   1
    84    39    80   1
    85    39    81   1
    86    40    82   1
    87    40    83   1
    88    41    84   1
    89    41    85   1
    90    42    86   1
    91    42    87   1
    92    43    88   1
    93    44    89   1
    94    44    90   1
    95    45    91   1
    96    47    92   1
    97    47    93   1
    98    47    94   1
    99    48    95   1
   100    48    96   1
   101    48    97   1
   102    49    98   1
   103    49    99   1
   104    49   100   1
@<TRIPOS>SUBSTRUCTURE
     1  ROC      2

