@<TRIPOS>MOLECULE
3cyx_ligand_095
   100   104
SMALL
GAST_HUCK
****
This file was generated by PARSER (from files_GN.cpp)

@<TRIPOS>ATOM
      1 O1         19.7861   28.2343   15.7965 O.2         1 ROC      -0.3762
      2 C1         20.0414   27.0879   16.1538 C.2         1 ROC       0.2293
      3 N1         21.3114   25.6177   17.5385 N.ar        1 ROC      -0.2737
      4 C2         21.1827   26.8230   16.9115 C.ar        1 ROC       0.1219
      5 C3         22.2291   27.7636   17.0839 C.ar        1 ROC      -0.0136
      6 C4         23.3432   27.4418   17.8819 C.ar        1 ROC      -0.0314
      7 C5         23.4182   26.1939   18.5304 C.ar        1 ROC       0.0097
      8 C6         24.4889   25.8483   19.3864 C.ar        1 ROC      -0.0444
      9 C7         24.5033   24.5975   20.0337 C.ar        1 ROC      -0.0546
     10 C8         23.4620   23.6767   19.8137 C.ar        1 ROC      -0.0545
     11 C9R        22.3923   24.0087   18.9608 C.ar        1 ROC      -0.0370
     12 C10        22.3612   25.2670   18.3260 C.ar        1 ROC       0.0527
     13 N2         19.2347   26.0951   15.7957 N.am        1 ROC      -0.2600
     14 C11        18.0354   26.1549   14.9902 C.3         1 ROC       0.1473
     15 C12        17.4109   24.8350   14.9042 C.2         1 ROC       0.2045
     16 O2         18.1197   23.8497   14.7302 O.2         1 ROC      -0.3943
     17 C13        18.2533   26.7401   13.5571 C.3         1 ROC       0.0773
     18 C14        19.3009   26.0716   12.8068 C.2         1 ROC       0.1780
     19 O3         20.4758   26.3644   12.9916 O.2         1 ROC      -0.3970
     20 N3         19.0324   25.1198   11.9400 N.am        1 ROC      -0.3007
     21 C15        15.5828   22.5609   16.0439 C.3         1 ROC       0.1194
     22 O4         16.5001   21.5172   15.7085 O.3         1 ROC      -0.3840
     23 C16        15.2979   23.5212   14.8264 C.3         1 ROC       0.0823
     24 N4         16.0866   24.7213   14.9222 N.am        1 ROC      -0.2772
     25 C17        15.3857   22.9102   13.3854 C.3         1 ROC       0.0066
     26 C18        14.4897   21.7486   13.1118 C.ar        1 ROC      -0.0408
     27 C19        13.0826   21.8737   13.2263 C.ar        1 ROC      -0.0603
     28 C20        15.0195   20.4960   12.7125 C.ar        1 ROC      -0.0603
     29 C21        12.2396   20.7687   13.0033 C.ar        1 ROC      -0.0686
     30 C22        14.1747   19.3959   12.4694 C.ar        1 ROC      -0.0686
     31 C23        12.7860   19.5290   12.6275 C.ar        1 ROC      -0.0687
     32 N5         14.5079   21.1182   17.9248 N.4         1 ROC       0.2562
     33 C24        14.2970   21.9523   16.6762 C.3         1 ROC      -0.0008
     34 C25        14.4309   21.8921   19.2268 C.3         1 ROC       0.0688
     35 C26        15.3969   22.9942   19.3392 C.2         1 ROC       0.2251
     36 O5         14.9966   24.1458   19.2103 O.2         1 ROC      -0.3909
     37 C27        14.5617   20.9652   20.4808 C.3         1 ROC       0.0113
     38 C28        13.5635   19.7702   20.4560 C.3         1 ROC      -0.0261
     39 C29        13.7214   18.8226   21.6868 C.3         1 ROC      -0.0494
     40 C30        14.9743   17.9106   21.6105 C.3         1 ROC      -0.0528
     41 C31        15.0589   17.1483   20.2643 C.3         1 ROC      -0.0526
     42 C32        14.9603   18.1008   19.0462 C.3         1 ROC      -0.0451
     43 C33        13.6743   18.9811   19.1145 C.3         1 ROC       0.0024
     44 C34        13.5511   19.9544   17.9120 C.3         1 ROC      -0.0266
     45 N6         16.6861   22.7609   19.5820 N.am        1 ROC      -0.2771
     46 C35        17.7585   23.6941   19.8675 C.3         1 ROC       0.0448
     47 C36        17.4435   24.6015   21.1009 C.3         1 ROC      -0.0396
     48 C37        18.0595   24.5790   18.6213 C.3         1 ROC      -0.0396
     49 C38        19.0190   22.8306   20.1946 C.3         1 ROC      -0.0396
     50 H1         22.1970   28.6795   16.6304 H           1 ROC       0.0729
     51 H2         24.0927   28.1295   17.9965 H           1 ROC       0.0774
     52 H3         25.2496   26.5109   19.5591 H           1 ROC       0.0657
     53 H4         25.2653   24.3643   20.6753 H           1 ROC       0.0652
     54 H5         23.4768   22.7691   20.2867 H           1 ROC       0.0657
     55 H6         21.6278   23.3415   18.8236 H           1 ROC       0.0653
     56 H7         19.4862   25.2132   16.1094 H           1 ROC       0.1882
     57 H8         17.3387   26.8219   15.5088 H           1 ROC       0.0826
     58 H9         18.5029   27.8030   13.6322 H           1 ROC       0.0551
     59 H10        17.3117   26.6877   12.9965 H           1 ROC       0.0551
     60 H11        19.7536   24.6797   11.4608 H           1 ROC       0.1814
     61 H12        18.1128   24.8461   11.7852 H           1 ROC       0.1814
     62 H13        16.0738   23.1439   16.8241 H           1 ROC       0.0672
     63 H14        16.0244   20.9372   15.0781 H           1 ROC       0.2101
     64 H15        14.2745   23.8917   14.9304 H           1 ROC       0.0606
     65 H16        15.5826   25.5437   15.0490 H           1 ROC       0.1857
     66 H17        16.4242   22.6369   13.1848 H           1 ROC       0.0449
     67 H18        15.1296   23.6915   12.6644 H           1 ROC       0.0449
     68 H19        12.6636   22.7696   13.4880 H           1 ROC       0.0557
     69 H20        16.0281   20.3713   12.5937 H           1 ROC       0.0557
     70 H21        11.2282   20.8689   13.1166 H           1 ROC       0.0599
     71 H22        14.5727   18.4977   12.1852 H           1 ROC       0.0599
     72 H23        12.1712   18.7296   12.4632 H           1 ROC       0.0559
     73 H24        15.4497   20.7208   17.8688 H           1 ROC       0.2057
     74 H25        13.8351   21.3655   15.8797 H           1 ROC       0.0841
     75 H26        13.5924   22.7604   16.8970 H           1 ROC       0.0841
     76 H27        13.4241   22.3244   19.2826 H           1 ROC       0.1100
     77 H28        14.3845   21.5541   21.3861 H           1 ROC       0.0348
     78 H29        15.5787   20.5755   20.5406 H           1 ROC       0.0348
     79 H30        12.5525   20.1920   20.5119 H           1 ROC       0.0309
     80 H31        12.8350   18.1840   21.7550 H           1 ROC       0.0268
     81 H32        13.7638   19.4124   22.6066 H           1 ROC       0.0268
     82 H33        14.9377   17.1847   22.4263 H           1 ROC       0.0265
     83 H34        15.8770   18.5104   21.7458 H           1 ROC       0.0265
     84 H35        14.2443   16.4197   20.2118 H           1 ROC       0.0265
     85 H36        16.0030   16.5998   20.2163 H           1 ROC       0.0265
     86 H37        14.9449   17.4968   18.1356 H           1 ROC       0.0270
     87 H38        15.8515   18.7307   19.0061 H           1 ROC       0.0270
     88 H39        12.8185   18.2971   19.0584 H           1 ROC       0.0355
     89 H40        13.6973   19.3654   17.0014 H           1 ROC       0.0818
     90 H41        12.5242   20.3341   17.8870 H           1 ROC       0.0818
     91 H42        16.9418   21.8246   19.6130 H           1 ROC       0.1859
     92 H43        18.2957   25.2453   21.3379 H           1 ROC       0.0254
     93 H44        17.2180   23.9927   21.9798 H           1 ROC       0.0254
     94 H45        16.5884   25.2504   20.9043 H           1 ROC       0.0254
     95 H46        18.9233   25.2229   18.8066 H           1 ROC       0.0254
     96 H47        17.2025   25.2119   18.3769 H           1 ROC       0.0254
     97 H48        18.2824   23.9511   17.7563 H           1 ROC       0.0254
     98 H49        19.8692   23.4639   20.4637 H           1 ROC       0.0254
     99 H50        19.3071   22.2242   19.3324 H           1 ROC       0.0254
    100 H51        18.8166   22.1507   21.0275 H           1 ROC       0.0254
@<TRIPOS>BOND
     1     2     1   2
     2     2     4   1
     3    13     2  am
     4     4     3  ar
     5     3    12  ar
     6     4     5  ar
     7     5     6  ar
     8     6     7  ar
     9     7     8  ar
    10    12     7  ar
    11     8     9  ar
    12    10     9  ar
    13    11    10  ar
    14    12    11  ar
    15    14    13   1
    16    15    14   1
    17    14    17   1
    18    15    16   2
    19    24    15  am
    20    17    18   1
    21    18    19   2
    22    18    20  am
    23    21    22   1
    24    23    21   1
    25    21    33   1
    26    23    24   1
    27    23    25   1
    28    25    26   1
    29    26    27  ar
    30    26    28  ar
    31    27    29  ar
    32    28    30  ar
    33    29    31  ar
    34    30    31  ar
    35    33    32   1
    36    32    34   1
    37    32    44   1
    38    34    35   1
    39    34    37   1
    40    35    36   2
    41    35    45  am
    42    37    38   1
    43    38    39   1
    44    38    43   1
    45    39    40   1
    46    40    41   1
    47    41    42   1
    48    42    43   1
    49    43    44   1
    50    45    46   1
    51    46    47   1
    52    46    48   1
    53    46    49   1
    54     5    50   1
    55     6    51   1
    56     8    52   1
    57     9    53   1
    58    10    54   1
    59    11    55   1
    60    13    56   1
    61    14    57   1
    62    17    58   1
    63    17    59   1
    64    20    60   1
    65    20    61   1
    66    21    62   1
    67    22    63   1
    68    23    64   1
    69    24    65   1
    70    25    66   1
    71    25    67   1
    72    27    68   1
    73    28    69   1
    74    29    70   1
    75    30    71   1
    76    31    72   1
    77    32    73   1
    78    33    74   1
    79    33    75   1
    80    34    76   1
    81    37    77   1
    82    37    78   1
    83    38    79   1
    84    39    80   1
    85    39    81   1
    86    40    82   1
    87    40    83   1
    88    41    84   1
    89    41    85   1
    90    42    86   1
    91    42    87   1
    92    43    88   1
    93    44    89   1
    94    44    90   1
    95    45    91   1
    96    47    92   1
    97    47    93   1
    98    47    94   1
    99    48    95   1
   100    48    96   1
   101    48    97   1
   102    49    98   1
   103    49    99   1
   104    49   100   1
@<TRIPOS>SUBSTRUCTURE
     1  ROC      2

