@<TRIPOS>MOLECULE
3cyx_ligand_042
   100   104
SMALL
GAST_HUCK
****
This file was generated by PARSER (from files_GN.cpp)

@<TRIPOS>ATOM
      1 O1         20.0879   27.2671   17.1834 O.2         1 ROC      -0.3762
      2 C1         20.6796   26.1952   17.2391 C.2         1 ROC       0.2293
      3 N1         22.3922   24.8410   18.1765 N.ar        1 ROC      -0.2737
      4 C2         21.8483   26.0771   17.9858 C.ar        1 ROC       0.1219
      5 C3         22.4871   27.1787   18.6024 C.ar        1 ROC      -0.0136
      6 C4         23.6434   26.9767   19.3813 C.ar        1 ROC      -0.0314
      7 C5         24.1709   25.6796   19.5445 C.ar        1 ROC       0.0097
      8 C6         25.3248   25.4288   20.3196 C.ar        1 ROC      -0.0444
      9 C7         25.8100   24.1151   20.4539 C.ar        1 ROC      -0.0546
     10 C8         25.1459   23.0456   19.8223 C.ar        1 ROC      -0.0545
     11 C9R        24.0010   23.2863   19.0442 C.ar        1 ROC      -0.0370
     12 C10        23.5090   24.5986   18.9069 C.ar        1 ROC       0.0527
     13 N2         20.1908   25.1293   16.6135 N.am        1 ROC      -0.2600
     14 C11        18.9072   24.9718   15.9899 C.3         1 ROC       0.1473
     15 C12        18.3957   23.6595   16.3624 C.2         1 ROC       0.2045
     16 O2         19.0210   22.6603   16.0180 O.2         1 ROC      -0.3943
     17 C13        19.0364   25.1107   14.4400 C.3         1 ROC       0.0773
     18 C14        19.0659   26.4888   13.9971 C.2         1 ROC       0.1780
     19 O3         20.0711   27.0012   13.5106 O.2         1 ROC      -0.3970
     20 N3         17.9821   27.2465   14.0832 N.am        1 ROC      -0.3007
     21 C15        15.3913   22.0561   16.6138 C.3         1 ROC       0.1194
     22 O4         14.3118   22.9585   16.8850 O.3         1 ROC      -0.3840
     23 C16        16.6441   22.3472   17.5174 C.3         1 ROC       0.0823
     24 N4         17.2769   23.5634   17.0718 N.am        1 ROC      -0.2772
     25 C17        16.3137   22.4890   19.0394 C.3         1 ROC       0.0066
     26 C18        17.5304   22.4863   19.9005 C.ar        1 ROC      -0.0408
     27 C19        18.3284   21.3235   20.0151 C.ar        1 ROC      -0.0603
     28 C20        17.9339   23.6513   20.6059 C.ar        1 ROC      -0.0603
     29 C21        19.4887   21.3112   20.8142 C.ar        1 ROC      -0.0686
     30 C22        19.1015   23.6465   21.3984 C.ar        1 ROC      -0.0686
     31 C23        19.8734   22.4769   21.5117 C.ar        1 ROC      -0.0687
     32 N5         13.6876   20.1045   15.9757 N.4         1 ROC       0.2562
     33 C24        14.9079   20.5760   16.7296 C.3         1 ROC      -0.0008
     34 C25        12.3582   20.1636   16.6985 C.3         1 ROC       0.0688
     35 C26        12.3182   19.5118   18.0078 C.2         1 ROC       0.2251
     36 O5         11.5324   19.9305   18.8433 O.2         1 ROC      -0.3909
     37 C27        11.2201   19.5201   15.8431 C.3         1 ROC       0.0113
     38 C28        11.1399   20.1032   14.4017 C.3         1 ROC      -0.0261
     39 C29        10.0384   19.4311   13.5243 C.3         1 ROC      -0.0494
     40 C30        10.4135   18.0052   13.0369 C.3         1 ROC      -0.0528
     41 C31        11.7957   17.9865   12.3314 C.3         1 ROC      -0.0526
     42 C32        12.9080   18.6145   13.2142 C.3         1 ROC      -0.0451
     43 C33        12.5283   20.0532   13.6888 C.3         1 ROC       0.0024
     44 C34        13.6180   20.6988   14.5939 C.3         1 ROC      -0.0266
     45 N6         13.0511   18.4299   18.2554 N.am        1 ROC      -0.2771
     46 C35        13.1969   17.6680   19.4756 C.3         1 ROC       0.0448
     47 C36        13.1432   18.5523   20.7669 C.3         1 ROC      -0.0396
     48 C37        14.6107   17.0061   19.3858 C.3         1 ROC      -0.0396
     49 C38        12.1149   16.5452   19.5299 C.3         1 ROC      -0.0396
     50 H1         22.1147   28.1249   18.5082 H           1 ROC       0.0729
     51 H2         24.0812   27.7834   19.8326 H           1 ROC       0.0774
     52 H3         25.8137   26.1969   20.7906 H           1 ROC       0.0657
     53 H4         26.6400   23.9343   21.0214 H           1 ROC       0.0652
     54 H5         25.5027   22.0934   19.9229 H           1 ROC       0.0657
     55 H6         23.5223   22.5083   18.5866 H           1 ROC       0.0653
     56 H7         20.7656   24.3442   16.5883 H           1 ROC       0.1882
     57 H8         18.2043   25.7397   16.3425 H           1 ROC       0.0826
     58 H9         18.1930   24.6153   13.9376 H           1 ROC       0.0551
     59 H10        19.9494   24.6019   14.1034 H           1 ROC       0.0551
     60 H11        18.0037   28.1675   13.7811 H           1 ROC       0.1814
     61 H12        17.1600   26.8795   14.4514 H           1 ROC       0.1814
     62 H13        15.6952   22.2070   15.5731 H           1 ROC       0.0672
     63 H14        14.6344   23.8324   16.5629 H           1 ROC       0.2101
     64 H15        17.3354   21.4987   17.4139 H           1 ROC       0.0606
     65 H16        16.8279   24.3891   17.3142 H           1 ROC       0.1857
     66 H17        15.6719   21.6646   19.3681 H           1 ROC       0.0449
     67 H18        15.7498   23.4143   19.1979 H           1 ROC       0.0449
     68 H19        18.0587   20.4641   19.5267 H           1 ROC       0.0557
     69 H20        17.3881   24.5134   20.5422 H           1 ROC       0.0557
     70 H21        20.0542   20.4603   20.8937 H           1 ROC       0.0599
     71 H22        19.3821   24.4932   21.9075 H           1 ROC       0.0599
     72 H23        20.7219   22.4713   22.0911 H           1 ROC       0.0559
     73 H24        13.8566   19.1053   15.8231 H           1 ROC       0.2057
     74 H25        14.8051   20.3489   17.7865 H           1 ROC       0.0841
     75 H26        15.7332   19.9491   16.3835 H           1 ROC       0.0841
     76 H27        12.1035   21.2182   16.8380 H           1 ROC       0.1100
     77 H28        10.2515   19.6920   16.3253 H           1 ROC       0.0348
     78 H29        11.3752   18.4391   15.7870 H           1 ROC       0.0348
     79 H30        10.8612   21.1585   14.4949 H           1 ROC       0.0309
     80 H31         9.8614   20.0531   12.6412 H           1 ROC       0.0268
     81 H32         9.0992   19.3837   14.0787 H           1 ROC       0.0268
     82 H33         9.6507   17.6505   12.3369 H           1 ROC       0.0265
     83 H34        10.4294   17.3113   13.8813 H           1 ROC       0.0265
     84 H35        11.7238   18.5408   11.3883 H           1 ROC       0.0265
     85 H36        12.0620   16.9519   12.0858 H           1 ROC       0.0265
     86 H37        13.8305   18.6489   12.6261 H           1 ROC       0.0270
     87 H38        13.0897   17.9624   14.0706 H           1 ROC       0.0270
     88 H39        12.4652   20.6721   12.7823 H           1 ROC       0.0355
     89 H40        14.5870   20.5912   14.0910 H           1 ROC       0.0818
     90 H41        13.4004   21.7698   14.6608 H           1 ROC       0.0818
     91 H42        13.5898   18.1198   17.5120 H           1 ROC       0.1859
     92 H43        13.4102   17.9618   21.6510 H           1 ROC       0.0254
     93 H44        12.1356   18.9557   20.9167 H           1 ROC       0.0254
     94 H45        13.8442   19.3910   20.6827 H           1 ROC       0.0254
     95 H46        14.8231   16.4131   20.2779 H           1 ROC       0.0254
     96 H47        15.3920   17.7663   19.2946 H           1 ROC       0.0254
     97 H48        14.6845   16.3428   18.5157 H           1 ROC       0.0254
     98 H49        12.2632   15.9108   20.4125 H           1 ROC       0.0254
     99 H50        12.1759   15.9118   18.6362 H           1 ROC       0.0254
    100 H51        11.1127   16.9803   19.5799 H           1 ROC       0.0254
@<TRIPOS>BOND
     1     2     1   2
     2     2     4   1
     3    13     2  am
     4     4     3  ar
     5     3    12  ar
     6     4     5  ar
     7     5     6  ar
     8     6     7  ar
     9     7     8  ar
    10    12     7  ar
    11     8     9  ar
    12    10     9  ar
    13    11    10  ar
    14    12    11  ar
    15    14    13   1
    16    15    14   1
    17    14    17   1
    18    15    16   2
    19    24    15  am
    20    17    18   1
    21    18    19   2
    22    18    20  am
    23    21    22   1
    24    23    21   1
    25    21    33   1
    26    23    24   1
    27    23    25   1
    28    25    26   1
    29    26    27  ar
    30    26    28  ar
    31    27    29  ar
    32    28    30  ar
    33    29    31  ar
    34    30    31  ar
    35    33    32   1
    36    32    34   1
    37    32    44   1
    38    34    35   1
    39    34    37   1
    40    35    36   2
    41    35    45  am
    42    37    38   1
    43    38    39   1
    44    38    43   1
    45    39    40   1
    46    40    41   1
    47    41    42   1
    48    42    43   1
    49    43    44   1
    50    45    46   1
    51    46    47   1
    52    46    48   1
    53    46    49   1
    54     5    50   1
    55     6    51   1
    56     8    52   1
    57     9    53   1
    58    10    54   1
    59    11    55   1
    60    13    56   1
    61    14    57   1
    62    17    58   1
    63    17    59   1
    64    20    60   1
    65    20    61   1
    66    21    62   1
    67    22    63   1
    68    23    64   1
    69    24    65   1
    70    25    66   1
    71    25    67   1
    72    27    68   1
    73    28    69   1
    74    29    70   1
    75    30    71   1
    76    31    72   1
    77    32    73   1
    78    33    74   1
    79    33    75   1
    80    34    76   1
    81    37    77   1
    82    37    78   1
    83    38    79   1
    84    39    80   1
    85    39    81   1
    86    40    82   1
    87    40    83   1
    88    41    84   1
    89    41    85   1
    90    42    86   1
    91    42    87   1
    92    43    88   1
    93    44    89   1
    94    44    90   1
    95    45    91   1
    96    47    92   1
    97    47    93   1
    98    47    94   1
    99    48    95   1
   100    48    96   1
   101    48    97   1
   102    49    98   1
   103    49    99   1
   104    49   100   1
@<TRIPOS>SUBSTRUCTURE
     1  ROC      2

