@<TRIPOS>MOLECULE
3cyx_ligand_063
   100   104
SMALL
GAST_HUCK
****
This file was generated by PARSER (from files_GN.cpp)

@<TRIPOS>ATOM
      1 O1         12.3749   19.7454   15.4334 O.2         1 ROC      -0.3762
      2 C1         12.0921   18.5606   15.2696 C.2         1 ROC       0.2293
      3 N1         11.8831   16.8184   13.6576 N.ar        1 ROC      -0.2737
      4 C2         12.5726   17.8845   14.1581 C.ar        1 ROC       0.1219
      5 C3         13.7898   18.2452   13.5343 C.ar        1 ROC      -0.0136
      6 C4         14.2709   17.4886   12.4528 C.ar        1 ROC      -0.0314
      7 C5         13.5242   16.4002   11.9573 C.ar        1 ROC       0.0097
      8 C6         13.9650   15.6233   10.8662 C.ar        1 ROC      -0.0444
      9 C7         13.1752   14.5610   10.3924 C.ar        1 ROC      -0.0546
     10 C8         11.9437   14.2669   11.0027 C.ar        1 ROC      -0.0545
     11 C9R        11.5008   15.0222   12.1031 C.ar        1 ROC      -0.0370
     12 C10        12.2904   16.0854   12.5875 C.ar        1 ROC       0.0527
     13 N2         11.4583   17.8722   16.2161 N.am        1 ROC      -0.2600
     14 C11        10.9549   18.3865   17.4656 C.3         1 ROC       0.1473
     15 C12        11.8931   19.2673   18.1762 C.2         1 ROC       0.2045
     16 O2         11.4364   20.0919   18.9563 O.2         1 ROC      -0.3943
     17 C13        10.5051   17.2174   18.3996 C.3         1 ROC       0.0773
     18 C14         9.5479   16.2639   17.8540 C.2         1 ROC       0.1780
     19 O3          9.1564   16.3174   16.6953 O.2         1 ROC      -0.3970
     20 N3          9.0369   15.3297   18.6205 N.am        1 ROC      -0.3007
     21 C15        14.9512   20.7497   17.3970 C.3         1 ROC       0.1194
     22 O4         14.8136   20.0587   16.1480 O.3         1 ROC      -0.3840
     23 C16        14.2639   19.9584   18.5630 C.3         1 ROC       0.0823
     24 N4         13.2021   19.1676   17.9896 N.am        1 ROC      -0.2772
     25 C17        15.1643   18.9805   19.3893 C.3         1 ROC       0.0066
     26 C18        14.4866   18.5477   20.6514 C.ar        1 ROC      -0.0408
     27 C19        14.4530   19.4187   21.7681 C.ar        1 ROC      -0.0603
     28 C20        13.8173   17.3012   20.7473 C.ar        1 ROC      -0.0603
     29 C21        13.7824   19.0549   22.9470 C.ar        1 ROC      -0.0686
     30 C22        13.1361   16.9422   21.9227 C.ar        1 ROC      -0.0686
     31 C23        13.1204   17.8155   23.0261 C.ar        1 ROC      -0.0687
     32 N5         16.9755   22.4119   16.9391 N.4         1 ROC       0.2562
     33 C24        16.4370   21.1712   17.6294 C.3         1 ROC      -0.0008
     34 C25        18.4479   22.6326   17.2260 C.3         1 ROC       0.0688
     35 C26        18.8039   22.5993   18.6483 C.2         1 ROC       0.2251
     36 O5         19.1590   21.5217   19.1137 O.2         1 ROC      -0.3909
     37 C27        18.9829   23.9602   16.5967 C.3         1 ROC       0.0113
     38 C28        18.6891   24.0403   15.0675 C.3         1 ROC      -0.0261
     39 C29        19.1613   25.3730   14.4118 C.3         1 ROC      -0.0494
     40 C30        18.2588   26.5830   14.7732 C.3         1 ROC      -0.0528
     41 C31        16.7677   26.2917   14.4644 C.3         1 ROC      -0.0526
     42 C32        16.2729   24.9793   15.1248 C.3         1 ROC      -0.0451
     43 C33        17.1834   23.7669   14.7624 C.3         1 ROC       0.0024
     44 C34        16.7114   22.4571   15.4579 C.3         1 ROC      -0.0266
     45 N6         18.7647   23.7049   19.3917 N.am        1 ROC      -0.2771
     46 C35        19.2019   23.9551   20.7543 C.3         1 ROC       0.0448
     47 C36        19.9574   22.7990   21.4903 C.3         1 ROC      -0.0396
     48 C37        17.9192   24.3136   21.5711 C.3         1 ROC      -0.0396
     49 C38        20.1419   25.1960   20.6920 C.3         1 ROC      -0.0396
     50 H1         14.3533   19.0313   13.8774 H           1 ROC       0.0729
     51 H2         15.1703   17.7357   12.0311 H           1 ROC       0.0774
     52 H3         14.8563   15.8282   10.4106 H           1 ROC       0.0657
     53 H4         13.4998   14.0010    9.6000 H           1 ROC       0.0652
     54 H5         11.3731   13.4943   10.6523 H           1 ROC       0.0657
     55 H6         10.6070   14.7976   12.5466 H           1 ROC       0.0653
     56 H7         11.3166   16.9212   16.0445 H           1 ROC       0.1882
     57 H8         10.0662   18.9740   17.2199 H           1 ROC       0.0826
     58 H9         10.0479   17.6497   19.2958 H           1 ROC       0.0551
     59 H10        11.3919   16.6571   18.7166 H           1 ROC       0.0551
     60 H11         8.3812   14.7081   18.2646 H           1 ROC       0.1814
     61 H12         9.2967   15.2752   19.5545 H           1 ROC       0.1814
     62 H13        14.3798   21.6723   17.2837 H           1 ROC       0.0672
     63 H14        14.9177   19.1067   16.3593 H           1 ROC       0.2101
     64 H15        13.8717   20.7113   19.2564 H           1 ROC       0.0606
     65 H16        13.4924   18.4447   17.4041 H           1 ROC       0.1857
     66 H17        16.1098   19.4667   19.6529 H           1 ROC       0.0449
     67 H18        15.4203   18.1109   18.7700 H           1 ROC       0.0449
     68 H19        14.9262   20.3248   21.7270 H           1 ROC       0.0557
     69 H20        13.8183   16.6518   19.9554 H           1 ROC       0.0557
     70 H21        13.7763   19.6902   23.7501 H           1 ROC       0.0599
     71 H22        12.6531   16.0415   21.9835 H           1 ROC       0.0599
     72 H23        12.6330   17.5515   23.8875 H           1 ROC       0.0559
     73 H24        16.4756   23.2089   17.3452 H           1 ROC       0.2057
     74 H25        17.0611   20.3110   17.3663 H           1 ROC       0.0841
     75 H26        16.5478   21.3419   18.7063 H           1 ROC       0.0841
     76 H27        18.9884   21.8184   16.7227 H           1 ROC       0.1100
     77 H28        20.0671   24.0140   16.7428 H           1 ROC       0.0348
     78 H29        18.5317   24.8106   17.1143 H           1 ROC       0.0348
     79 H30        19.2697   23.2441   14.5955 H           1 ROC       0.0309
     80 H31        19.1514   25.2521   13.3239 H           1 ROC       0.0268
     81 H32        20.1914   25.5886   14.7054 H           1 ROC       0.0268
     82 H33        18.5801   27.4574   14.1989 H           1 ROC       0.0265
     83 H34        18.3758   26.8233   15.8322 H           1 ROC       0.0265
     84 H35        16.6317   26.2236   13.3817 H           1 ROC       0.0265
     85 H36        16.1605   27.1218   14.8280 H           1 ROC       0.0265
     86 H37        15.2515   24.7843   14.7817 H           1 ROC       0.0270
     87 H38        16.2373   25.1148   16.2088 H           1 ROC       0.0270
     88 H39        17.0858   23.6058   13.6821 H           1 ROC       0.0355
     89 H40        15.6431   22.3708   15.2537 H           1 ROC       0.0818
     90 H41        17.2018   21.6069   14.9765 H           1 ROC       0.0818
     91 H42        18.4464   24.4949   18.9200 H           1 ROC       0.1859
     92 H43        20.2021   23.0773   22.5219 H           1 ROC       0.0254
     93 H44        20.8982   22.5617   20.9849 H           1 ROC       0.0254
     94 H45        19.3384   21.8983   21.5045 H           1 ROC       0.0254
     95 H46        18.1675   24.5448   22.6099 H           1 ROC       0.0254
     96 H47        17.2183   23.4770   21.5628 H           1 ROC       0.0254
     97 H48        17.4175   25.1840   21.1428 H           1 ROC       0.0254
     98 H49        20.4278   25.5285   21.6932 H           1 ROC       0.0254
     99 H50        19.6582   26.0313   20.1848 H           1 ROC       0.0254
    100 H51        21.0542   24.9588   20.1384 H           1 ROC       0.0254
@<TRIPOS>BOND
     1     2     1   2
     2     2     4   1
     3    13     2  am
     4     4     3  ar
     5     3    12  ar
     6     4     5  ar
     7     5     6  ar
     8     6     7  ar
     9     7     8  ar
    10    12     7  ar
    11     8     9  ar
    12    10     9  ar
    13    11    10  ar
    14    12    11  ar
    15    14    13   1
    16    15    14   1
    17    14    17   1
    18    15    16   2
    19    24    15  am
    20    17    18   1
    21    18    19   2
    22    18    20  am
    23    21    22   1
    24    23    21   1
    25    21    33   1
    26    23    24   1
    27    23    25   1
    28    25    26   1
    29    26    27  ar
    30    26    28  ar
    31    27    29  ar
    32    28    30  ar
    33    29    31  ar
    34    30    31  ar
    35    33    32   1
    36    32    34   1
    37    32    44   1
    38    34    35   1
    39    34    37   1
    40    35    36   2
    41    35    45  am
    42    37    38   1
    43    38    39   1
    44    38    43   1
    45    39    40   1
    46    40    41   1
    47    41    42   1
    48    42    43   1
    49    43    44   1
    50    45    46   1
    51    46    47   1
    52    46    48   1
    53    46    49   1
    54     5    50   1
    55     6    51   1
    56     8    52   1
    57     9    53   1
    58    10    54   1
    59    11    55   1
    60    13    56   1
    61    14    57   1
    62    17    58   1
    63    17    59   1
    64    20    60   1
    65    20    61   1
    66    21    62   1
    67    22    63   1
    68    23    64   1
    69    24    65   1
    70    25    66   1
    71    25    67   1
    72    27    68   1
    73    28    69   1
    74    29    70   1
    75    30    71   1
    76    31    72   1
    77    32    73   1
    78    33    74   1
    79    33    75   1
    80    34    76   1
    81    37    77   1
    82    37    78   1
    83    38    79   1
    84    39    80   1
    85    39    81   1
    86    40    82   1
    87    40    83   1
    88    41    84   1
    89    41    85   1
    90    42    86   1
    91    42    87   1
    92    43    88   1
    93    44    89   1
    94    44    90   1
    95    45    91   1
    96    47    92   1
    97    47    93   1
    98    47    94   1
    99    48    95   1
   100    48    96   1
   101    48    97   1
   102    49    98   1
   103    49    99   1
   104    49   100   1
@<TRIPOS>SUBSTRUCTURE
     1  ROC      2

