@<TRIPOS>MOLECULE
3cyx_ligand_085
   100   104
SMALL
GAST_HUCK
****
This file was generated by PARSER (from files_GN.cpp)

@<TRIPOS>ATOM
      1 O1         16.2015   18.3973   18.0051 O.2         1 ROC      -0.3762
      2 C1         15.7117   19.4681   18.3430 C.2         1 ROC       0.2293
      3 N1         15.7540   21.8474   18.3685 N.ar        1 ROC      -0.2737
      4 C2         16.3431   20.6677   18.0174 C.ar        1 ROC       0.1219
      5 C3         17.5851   20.7341   17.3464 C.ar        1 ROC      -0.0136
      6 C4         18.1932   21.9805   17.1017 C.ar        1 ROC      -0.0314
      7 C5         17.5590   23.1723   17.5133 C.ar        1 ROC       0.0097
      8 C6         18.1350   24.4452   17.3135 C.ar        1 ROC      -0.0444
      9 C7         17.4465   25.6028   17.7181 C.ar        1 ROC      -0.0546
     10 C8         16.1722   25.5000   18.3067 C.ar        1 ROC      -0.0545
     11 C9R        15.5971   24.2350   18.5251 C.ar        1 ROC      -0.0370
     12 C10        16.2916   23.0712   18.1417 C.ar        1 ROC       0.0527
     13 N2         14.5916   19.4902   19.0555 N.am        1 ROC      -0.2600
     14 C11        13.7531   18.3924   19.4415 C.3         1 ROC       0.1473
     15 C12        12.5023   18.5626   18.7097 C.2         1 ROC       0.2045
     16 O2         11.6749   19.3827   19.0974 O.2         1 ROC      -0.3943
     17 C13        13.6322   18.3720   21.0001 C.3         1 ROC       0.0773
     18 C14        12.4149   17.7653   21.4750 C.2         1 ROC       0.1780
     19 O3         11.4586   18.4798   21.7410 O.2         1 ROC      -0.3970
     20 N3         12.2359   16.4580   21.5108 N.am        1 ROC      -0.3007
     21 C15        11.3889   19.6939   16.0117 C.3         1 ROC       0.1194
     22 O4         10.2987   20.4267   16.5742 O.3         1 ROC      -0.3840
     23 C16        11.3930   18.1969   16.5077 C.3         1 ROC       0.0823
     24 N4         12.3814   17.9800   17.5241 N.am        1 ROC      -0.2772
     25 C17         9.9954   17.6218   16.9012 C.3         1 ROC       0.0066
     26 C18         9.9973   16.2008   17.3568 C.ar        1 ROC      -0.0408
     27 C19         9.2920   15.8010   18.5198 C.ar        1 ROC      -0.0603
     28 C20        10.6843   15.2083   16.6186 C.ar        1 ROC      -0.0603
     29 C21         9.3069   14.4584   18.9477 C.ar        1 ROC      -0.0686
     30 C22        10.7012   13.8659   17.0469 C.ar        1 ROC      -0.0686
     31 C23        10.0153   13.4915   18.2153 C.ar        1 ROC      -0.0687
     32 N5         12.6482   20.6416   14.0159 N.4         1 ROC       0.2562
     33 C24        11.4104   19.8865   14.4563 C.3         1 ROC      -0.0008
     34 C25        13.3743   20.1222   12.7987 C.3         1 ROC       0.0688
     35 C26        13.7080   18.6972   12.8963 C.2         1 ROC       0.2251
     36 O5         14.5153   18.3445   13.7480 O.2         1 ROC      -0.3909
     37 C27        14.6968   20.9186   12.5613 C.3         1 ROC       0.0113
     38 C28        14.4536   22.4538   12.4731 C.3         1 ROC      -0.0261
     39 C29        15.7721   23.2694   12.2703 C.3         1 ROC      -0.0494
     40 C30        16.6071   23.4584   13.5628 C.3         1 ROC      -0.0528
     41 C31        15.7550   24.0212   14.7258 C.3         1 ROC      -0.0526
     42 C32        14.5066   23.1339   14.9859 C.3         1 ROC      -0.0451
     43 C33        13.6384   22.9790   13.7003 C.3         1 ROC       0.0024
     44 C34        12.3702   22.1118   13.9259 C.3         1 ROC      -0.0266
     45 N6         13.1099   17.8143   12.0983 N.am        1 ROC      -0.2771
     46 C35        13.2005   16.3695   12.0997 C.3         1 ROC       0.0448
     47 C36        12.4088   15.7814   13.3064 C.3         1 ROC      -0.0396
     48 C37        14.6820   15.8806   12.1208 C.3         1 ROC      -0.0396
     49 C38        12.5237   15.8848   10.7816 C.3         1 ROC      -0.0396
     50 H1         18.0706   19.8804   17.0577 H           1 ROC       0.0729
     51 H2         19.1007   22.0139   16.6280 H           1 ROC       0.0774
     52 H3         19.0602   24.5374   16.8826 H           1 ROC       0.0657
     53 H4         17.8616   26.5242   17.5594 H           1 ROC       0.0652
     54 H5         15.6582   26.3427   18.5682 H           1 ROC       0.0657
     55 H6         14.6665   24.1643   18.9448 H           1 ROC       0.0653
     56 H7         14.2766   20.3677   19.3206 H           1 ROC       0.1882
     57 H8         14.1986   17.4310   19.1531 H           1 ROC       0.0826
     58 H9         13.7008   19.4021   21.3768 H           1 ROC       0.0551
     59 H10        14.4877   17.8282   21.4186 H           1 ROC       0.0551
     60 H11        11.3649   16.0920   21.7263 H           1 ROC       0.1814
     61 H12        12.9543   15.8687   21.2341 H           1 ROC       0.1814
     62 H13        12.2817   20.1759   16.4212 H           1 ROC       0.0672
     63 H14        10.6682   21.2746   16.9111 H           1 ROC       0.2101
     64 H15        11.7493   17.5803   15.6804 H           1 ROC       0.0606
     65 H16        13.1134   17.4031   17.2575 H           1 ROC       0.1857
     66 H17         9.3257   17.7022   16.0387 H           1 ROC       0.0449
     67 H18         9.5795   18.2591   17.6845 H           1 ROC       0.0449
     68 H19         8.7638   16.4862   19.0651 H           1 ROC       0.0557
     69 H20        11.1740   15.4554   15.7568 H           1 ROC       0.0557
     70 H21         8.7997   14.1800   19.7924 H           1 ROC       0.0599
     71 H22        11.2097   13.1609   16.5054 H           1 ROC       0.0599
     72 H23        10.0266   12.5167   18.5287 H           1 ROC       0.0559
     73 H24        13.3316   20.5427   14.7696 H           1 ROC       0.2057
     74 H25        10.4985   20.4012   14.1356 H           1 ROC       0.0841
     75 H26        11.3489   18.9179   13.9611 H           1 ROC       0.0841
     76 H27        12.7311   20.2820   11.9277 H           1 ROC       0.1100
     77 H28        15.1526   20.5853   11.6245 H           1 ROC       0.0348
     78 H29        15.4042   20.7125   13.3693 H           1 ROC       0.0348
     79 H30        13.8467   22.6237   11.5721 H           1 ROC       0.0309
     80 H31        15.5148   24.2588   11.8760 H           1 ROC       0.0268
     81 H32        16.3972   22.7794   11.5191 H           1 ROC       0.0268
     82 H33        17.4300   24.1425   13.3602 H           1 ROC       0.0265
     83 H34        17.0425   22.5023   13.8632 H           1 ROC       0.0265
     84 H35        15.4370   25.0373   14.4802 H           1 ROC       0.0265
     85 H36        16.3760   24.0736   15.6456 H           1 ROC       0.0265
     86 H37        13.9140   23.6017   15.7742 H           1 ROC       0.0270
     87 H38        14.8216   22.1543   15.3495 H           1 ROC       0.0270
     88 H39        13.2774   23.9824   13.4529 H           1 ROC       0.0355
     89 H40        11.8777   22.4634   14.8373 H           1 ROC       0.0818
     90 H41        11.6731   22.2976   13.0990 H           1 ROC       0.0818
     91 H42        12.5001   18.1956   11.4473 H           1 ROC       0.1859
     92 H43        12.3785   14.6922   13.2571 H           1 ROC       0.0254
     93 H44        11.3856   16.1588   13.3026 H           1 ROC       0.0254
     94 H45        12.8702   16.0596   14.2527 H           1 ROC       0.0254
     95 H46        14.7291   14.7962   11.9894 H           1 ROC       0.0254
     96 H47        15.1650   16.1228   13.0677 H           1 ROC       0.0254
     97 H48        15.2528   16.3471   11.3166 H           1 ROC       0.0254
     98 H49        12.5173   14.7949   10.7230 H           1 ROC       0.0254
     99 H50        13.0540   16.2686    9.9092 H           1 ROC       0.0254
    100 H51        11.4900   16.2326   10.7296 H           1 ROC       0.0254
@<TRIPOS>BOND
     1     2     1   2
     2     2     4   1
     3    13     2  am
     4     4     3  ar
     5     3    12  ar
     6     4     5  ar
     7     5     6  ar
     8     6     7  ar
     9     7     8  ar
    10    12     7  ar
    11     8     9  ar
    12    10     9  ar
    13    11    10  ar
    14    12    11  ar
    15    14    13   1
    16    15    14   1
    17    14    17   1
    18    15    16   2
    19    24    15  am
    20    17    18   1
    21    18    19   2
    22    18    20  am
    23    21    22   1
    24    23    21   1
    25    21    33   1
    26    23    24   1
    27    23    25   1
    28    25    26   1
    29    26    27  ar
    30    26    28  ar
    31    27    29  ar
    32    28    30  ar
    33    29    31  ar
    34    30    31  ar
    35    33    32   1
    36    32    34   1
    37    32    44   1
    38    34    35   1
    39    34    37   1
    40    35    36   2
    41    35    45  am
    42    37    38   1
    43    38    39   1
    44    38    43   1
    45    39    40   1
    46    40    41   1
    47    41    42   1
    48    42    43   1
    49    43    44   1
    50    45    46   1
    51    46    47   1
    52    46    48   1
    53    46    49   1
    54     5    50   1
    55     6    51   1
    56     8    52   1
    57     9    53   1
    58    10    54   1
    59    11    55   1
    60    13    56   1
    61    14    57   1
    62    17    58   1
    63    17    59   1
    64    20    60   1
    65    20    61   1
    66    21    62   1
    67    22    63   1
    68    23    64   1
    69    24    65   1
    70    25    66   1
    71    25    67   1
    72    27    68   1
    73    28    69   1
    74    29    70   1
    75    30    71   1
    76    31    72   1
    77    32    73   1
    78    33    74   1
    79    33    75   1
    80    34    76   1
    81    37    77   1
    82    37    78   1
    83    38    79   1
    84    39    80   1
    85    39    81   1
    86    40    82   1
    87    40    83   1
    88    41    84   1
    89    41    85   1
    90    42    86   1
    91    42    87   1
    92    43    88   1
    93    44    89   1
    94    44    90   1
    95    45    91   1
    96    47    92   1
    97    47    93   1
    98    47    94   1
    99    48    95   1
   100    48    96   1
   101    48    97   1
   102    49    98   1
   103    49    99   1
   104    49   100   1
@<TRIPOS>SUBSTRUCTURE
     1  ROC      2

