@<TRIPOS>MOLECULE
3cyx_ligand_089
   100   104
SMALL
GAST_HUCK
****
This file was generated by PARSER (from files_GN.cpp)

@<TRIPOS>ATOM
      1 O1         12.8362   22.7669   14.7412 O.2         1 ROC      -0.3762
      2 C1         12.7851   21.7904   15.4830 C.2         1 ROC       0.2293
      3 N1         12.1103   19.5360   15.8803 N.ar        1 ROC      -0.2737
      4 C2         12.1694   20.6167   15.0517 C.ar        1 ROC       0.1219
      5 C3         11.6095   20.4858   13.7555 C.ar        1 ROC      -0.0136
      6 C4         11.0304   19.2670   13.3598 C.ar        1 ROC      -0.0314
      7 C5         10.9940   18.1766   14.2486 C.ar        1 ROC       0.0097
      8 C6         10.4247   16.9355   13.8875 C.ar        1 ROC      -0.0444
      9 C7         10.4121   15.8698   14.8061 C.ar        1 ROC      -0.0546
     10 C8         10.9686   16.0376   16.0895 C.ar        1 ROC      -0.0545
     11 C9R        11.5362   17.2704   16.4586 C.ar        1 ROC      -0.0370
     12 C10        11.5535   18.3407   15.5436 C.ar        1 ROC       0.0527
     13 N2         13.3319   21.8630   16.6919 N.am        1 ROC      -0.2600
     14 C11        14.0245   22.9936   17.2541 C.3         1 ROC       0.1473
     15 C12        15.3700   23.1157   16.7077 C.2         1 ROC       0.2045
     16 O2         15.9992   22.0857   16.4599 O.2         1 ROC      -0.3943
     17 C13        13.9983   22.9139   18.8184 C.3         1 ROC       0.0773
     18 C14        14.8271   21.9019   19.4387 C.2         1 ROC       0.1780
     19 O3         15.0899   20.8518   18.8619 O.2         1 ROC      -0.3970
     20 N3         15.3482   22.0835   20.6414 N.am        1 ROC      -0.3007
     21 C15        18.1892   24.8667   17.2159 C.3         1 ROC       0.1194
     22 O4         18.2727   26.2855   17.3704 O.3         1 ROC      -0.3840
     23 C16        17.2684   24.5319   15.9799 C.3         1 ROC       0.0823
     24 N4         15.9208   24.3059   16.4414 N.am        1 ROC      -0.2772
     25 C17        17.2954   25.6368   14.8521 C.3         1 ROC       0.0066
     26 C18        17.7300   25.1994   13.4873 C.ar        1 ROC      -0.0408
     27 C19        19.0413   24.6768   13.2965 C.ar        1 ROC      -0.0603
     28 C20        16.9278   25.4186   12.3409 C.ar        1 ROC      -0.0603
     29 C21        19.5434   24.4292   12.0034 C.ar        1 ROC      -0.0686
     30 C22        17.4237   25.1429   11.0483 C.ar        1 ROC      -0.0686
     31 C23        18.7270   24.6431   10.8789 C.ar        1 ROC      -0.0687
     32 N5         20.6723   24.4625   18.0932 N.4         1 ROC       0.2562
     33 C24        19.5924   24.2009   17.0780 C.3         1 ROC      -0.0008
     34 C25        21.0265   25.8982   18.4048 C.3         1 ROC       0.0688
     35 C26        21.1741   26.7423   17.2231 C.2         1 ROC       0.2251
     36 O5         20.4928   27.7521   17.1508 O.2         1 ROC      -0.3909
     37 C27        22.3591   25.9473   19.2122 C.3         1 ROC       0.0113
     38 C28        22.2634   25.1099   20.5187 C.3         1 ROC      -0.0261
     39 C29        23.5970   25.1212   21.3313 C.3         1 ROC      -0.0494
     40 C30        24.6922   24.1915   20.7425 C.3         1 ROC      -0.0528
     41 C31        24.1624   22.7522   20.5333 C.3         1 ROC      -0.0526
     42 C32        22.8876   22.7345   19.6545 C.3         1 ROC      -0.0451
     43 C33        21.7639   23.6495   20.2399 C.3         1 ROC       0.0024
     44 C34        20.4899   23.6550   19.3387 C.3         1 ROC      -0.0266
     45 N6         21.9978   26.3552   16.2588 N.am        1 ROC      -0.2771
     46 C35        22.2282   26.8626   14.9332 C.3         1 ROC       0.0448
     47 C36        22.0898   25.6226   14.0147 C.3         1 ROC      -0.0396
     48 C37        23.6855   27.3928   14.9009 C.3         1 ROC      -0.0396
     49 C38        21.2385   27.9542   14.4207 C.3         1 ROC      -0.0396
     50 H1         11.6237   21.2633   13.0927 H           1 ROC       0.0729
     51 H2         10.6410   19.1852   12.4174 H           1 ROC       0.0774
     52 H3         10.0200   16.7988   12.9580 H           1 ROC       0.0657
     53 H4          9.9992   14.9736   14.5416 H           1 ROC       0.0652
     54 H5         10.9607   15.2581   16.7518 H           1 ROC       0.0657
     55 H6         11.9414   17.3810   17.3920 H           1 ROC       0.0653
     56 H7         13.2455   21.0787   17.2576 H           1 ROC       0.1882
     57 H8         13.4430   23.8872   16.9980 H           1 ROC       0.0826
     58 H9         12.9702   22.7284   19.1362 H           1 ROC       0.0551
     59 H10        14.2631   23.9024   19.2063 H           1 ROC       0.0551
     60 H11        15.9143   21.4035   21.0313 H           1 ROC       0.1814
     61 H12        15.1553   22.9020   21.1273 H           1 ROC       0.1814
     62 H13        17.7342   24.4743   18.1315 H           1 ROC       0.0672
     63 H14        18.2183   26.4581   18.3361 H           1 ROC       0.2101
     64 H15        17.6142   23.5933   15.5308 H           1 ROC       0.0606
     65 H16        15.3680   25.0878   16.6264 H           1 ROC       0.1857
     66 H17        17.9888   26.4373   15.1302 H           1 ROC       0.0449
     67 H18        16.3087   26.1148   14.7945 H           1 ROC       0.0449
     68 H19        19.6500   24.4616   14.0888 H           1 ROC       0.0557
     69 H20        15.9792   25.7798   12.4371 H           1 ROC       0.0557
     70 H21        20.4861   24.0659   11.8880 H           1 ROC       0.0599
     71 H22        16.8272   25.2993   10.2211 H           1 ROC       0.0599
     72 H23        19.0853   24.4184    9.9435 H           1 ROC       0.0559
     73 H24        21.5085   24.0837   17.6408 H           1 ROC       0.2057
     74 H25        19.9959   24.4542   16.1010 H           1 ROC       0.0841
     75 H26        19.4358   23.1147   17.0504 H           1 ROC       0.0841
     76 H27        20.2510   26.3238   19.0534 H           1 ROC       0.1100
     77 H28        22.5943   26.9841   19.4734 H           1 ROC       0.0348
     78 H29        23.1785   25.5675   18.5975 H           1 ROC       0.0348
     79 H30        21.5119   25.5970   21.1501 H           1 ROC       0.0309
     80 H31        23.3850   24.7967   22.3526 H           1 ROC       0.0268
     81 H32        23.9890   26.1416   21.3928 H           1 ROC       0.0268
     82 H33        25.5460   24.1642   21.4267 H           1 ROC       0.0265
     83 H34        25.0468   24.5930   19.7889 H           1 ROC       0.0265
     84 H35        23.9351   22.3096   21.5069 H           1 ROC       0.0265
     85 H36        24.9367   22.1460   20.0579 H           1 ROC       0.0265
     86 H37        22.5229   21.7047   19.5991 H           1 ROC       0.0270
     87 H38        23.1461   23.0501   18.6401 H           1 ROC       0.0270
     88 H39        21.4692   23.2104   21.2049 H           1 ROC       0.0355
     89 H40        20.2428   22.6189   19.0944 H           1 ROC       0.0818
     90 H41        19.6532   24.0592   19.9150 H           1 ROC       0.0818
     91 H42        22.4763   25.5341   16.4510 H           1 ROC       0.1859
     92 H43        22.1701   25.8920   12.9713 H           1 ROC       0.0254
     93 H44        21.1055   25.1443   14.1822 H           1 ROC       0.0254
     94 H45        22.8528   24.8874   14.2255 H           1 ROC       0.0254
     95 H46        23.9687   27.6912   13.8899 H           1 ROC       0.0254
     96 H47        24.3879   26.6250   15.2349 H           1 ROC       0.0254
     97 H48        23.7924   28.2564   15.5618 H           1 ROC       0.0254
     98 H49        21.4269   28.1857   13.3748 H           1 ROC       0.0254
     99 H50        21.3468   28.8736   14.9954 H           1 ROC       0.0254
    100 H51        20.2062   27.6206   14.5000 H           1 ROC       0.0254
@<TRIPOS>BOND
     1     2     1   2
     2     2     4   1
     3    13     2  am
     4     4     3  ar
     5     3    12  ar
     6     4     5  ar
     7     5     6  ar
     8     6     7  ar
     9     7     8  ar
    10    12     7  ar
    11     8     9  ar
    12    10     9  ar
    13    11    10  ar
    14    12    11  ar
    15    14    13   1
    16    15    14   1
    17    14    17   1
    18    15    16   2
    19    24    15  am
    20    17    18   1
    21    18    19   2
    22    18    20  am
    23    21    22   1
    24    23    21   1
    25    21    33   1
    26    23    24   1
    27    23    25   1
    28    25    26   1
    29    26    27  ar
    30    26    28  ar
    31    27    29  ar
    32    28    30  ar
    33    29    31  ar
    34    30    31  ar
    35    33    32   1
    36    32    34   1
    37    32    44   1
    38    34    35   1
    39    34    37   1
    40    35    36   2
    41    35    45  am
    42    37    38   1
    43    38    39   1
    44    38    43   1
    45    39    40   1
    46    40    41   1
    47    41    42   1
    48    42    43   1
    49    43    44   1
    50    45    46   1
    51    46    47   1
    52    46    48   1
    53    46    49   1
    54     5    50   1
    55     6    51   1
    56     8    52   1
    57     9    53   1
    58    10    54   1
    59    11    55   1
    60    13    56   1
    61    14    57   1
    62    17    58   1
    63    17    59   1
    64    20    60   1
    65    20    61   1
    66    21    62   1
    67    22    63   1
    68    23    64   1
    69    24    65   1
    70    25    66   1
    71    25    67   1
    72    27    68   1
    73    28    69   1
    74    29    70   1
    75    30    71   1
    76    31    72   1
    77    32    73   1
    78    33    74   1
    79    33    75   1
    80    34    76   1
    81    37    77   1
    82    37    78   1
    83    38    79   1
    84    39    80   1
    85    39    81   1
    86    40    82   1
    87    40    83   1
    88    41    84   1
    89    41    85   1
    90    42    86   1
    91    42    87   1
    92    43    88   1
    93    44    89   1
    94    44    90   1
    95    45    91   1
    96    47    92   1
    97    47    93   1
    98    47    94   1
    99    48    95   1
   100    48    96   1
   101    48    97   1
   102    49    98   1
   103    49    99   1
   104    49   100   1
@<TRIPOS>SUBSTRUCTURE
     1  ROC      2

