@<TRIPOS>MOLECULE
3cyx_ligand_046
   100   104
SMALL
GAST_HUCK
****
This file was generated by PARSER (from files_GN.cpp)

@<TRIPOS>ATOM
      1 O1         18.1839   24.9329   16.1899 O.2         1 ROC      -0.3762
      2 C1         19.0049   25.3649   16.9896 C.2         1 ROC       0.2293
      3 N1         21.1168   26.3744   17.4154 N.ar        1 ROC      -0.2737
      4 C2         20.2438   25.8102   16.5331 C.ar        1 ROC       0.1219
      5 C3         20.6677   25.6829   15.1854 C.ar        1 ROC      -0.0136
      6 C4         21.9496   26.1174   14.8022 C.ar        1 ROC      -0.0314
      7 C5         22.8192   26.6902   15.7533 C.ar        1 ROC       0.0097
      8 C6         24.1199   27.1349   15.4257 C.ar        1 ROC      -0.0444
      9 C7         24.9455   27.6984   16.4183 C.ar        1 ROC      -0.0546
     10 C8         24.4810   27.8236   17.7405 C.ar        1 ROC      -0.0545
     11 C9R        23.1861   27.3869   18.0772 C.ar        1 ROC      -0.0370
     12 C10        22.3576   26.8155   17.0913 C.ar        1 ROC       0.0527
     13 N2         18.7188   25.3539   18.2933 N.am        1 ROC      -0.2600
     14 C11        17.5451   24.8250   18.9586 C.3         1 ROC       0.1473
     15 C12        17.4417   23.3659   18.8882 C.2         1 ROC       0.2045
     16 O2         18.2658   22.7437   18.2265 O.2         1 ROC      -0.3943
     17 C13        16.2382   25.6181   18.5743 C.3         1 ROC       0.0773
     18 C14        15.2162   24.9282   17.8027 C.2         1 ROC       0.1780
     19 O3         15.4570   24.4799   16.6910 O.2         1 ROC      -0.3970
     20 N3         13.9924   24.7793   18.2672 N.am        1 ROC      -0.3007
     21 C15        14.5902   21.2032   18.9385 C.3         1 ROC       0.1194
     22 O4         13.7282   21.4433   20.0483 O.3         1 ROC      -0.3840
     23 C16        16.1088   21.3315   19.3136 C.3         1 ROC       0.0823
     24 N4         16.4584   22.7199   19.5196 N.am        1 ROC      -0.2772
     25 C17        16.6649   20.4170   20.4634 C.3         1 ROC       0.0066
     26 C18        15.6799   19.7267   21.3423 C.ar        1 ROC      -0.0408
     27 C19        15.0324   20.4239   22.3879 C.ar        1 ROC      -0.0603
     28 C20        15.3367   18.3672   21.1318 C.ar        1 ROC      -0.0603
     29 C21        14.0554   19.7956   23.1849 C.ar        1 ROC      -0.0686
     30 C22        14.3445   17.7463   21.9126 C.ar        1 ROC      -0.0686
     31 C23        13.6983   18.4597   22.9355 C.ar        1 ROC      -0.0687
     32 N5         13.7753   19.8732   16.7974 N.4         1 ROC       0.2562
     33 C24        14.2609   19.8402   18.2260 C.3         1 ROC      -0.0008
     34 C25        12.3067   20.1920   16.6304 C.3         1 ROC       0.0688
     35 C26        11.4473   19.2275   17.3272 C.2         1 ROC       0.2251
     36 O5         10.6113   19.6424   18.1176 O.2         1 ROC      -0.3909
     37 C27        11.8533   20.2254   15.1365 C.3         1 ROC       0.0113
     38 C28        12.8049   21.0786   14.2487 C.3         1 ROC      -0.0261
     39 C29        12.3990   21.0841   12.7465 C.3         1 ROC      -0.0494
     40 C30        12.7042   19.7469   12.0123 C.3         1 ROC      -0.0528
     41 C31        14.1632   19.2748   12.2297 C.3         1 ROC      -0.0526
     42 C32        14.5545   19.2444   13.7254 C.3         1 ROC      -0.0451
     43 C33        14.2865   20.6185   14.4020 C.3         1 ROC       0.0024
     44 C34        14.6901   20.6551   15.8944 C.3         1 ROC      -0.0266
     45 N6         11.6585   17.9306   17.1335 N.am        1 ROC      -0.2771
     46 C35        11.0902   16.7467   17.7324 C.3         1 ROC       0.0448
     47 C36        10.8095   15.7671   16.5498 C.3         1 ROC      -0.0396
     48 C37         9.7748   16.9243   18.5548 C.3         1 ROC      -0.0396
     49 C38        12.1922   16.1606   18.6645 C.3         1 ROC      -0.0396
     50 H1         20.0596   25.2621   14.4788 H           1 ROC       0.0729
     51 H2         22.2468   26.0062   13.8286 H           1 ROC       0.0774
     52 H3         24.4740   27.0527   14.4692 H           1 ROC       0.0657
     53 H4         25.8873   28.0197   16.1782 H           1 ROC       0.0652
     54 H5         25.0834   28.2352   18.4578 H           1 ROC       0.0657
     55 H6         22.8540   27.4832   19.0403 H           1 ROC       0.0653
     56 H7         19.4063   25.7095   18.8797 H           1 ROC       0.1882
     57 H8         17.7372   25.0304   20.0181 H           1 ROC       0.0826
     58 H9         16.5093   26.5162   18.0121 H           1 ROC       0.0551
     59 H10        15.7834   25.9763   19.5039 H           1 ROC       0.0551
     60 H11        13.3180   24.3384   17.7287 H           1 ROC       0.1814
     61 H12        13.7765   25.0958   19.1607 H           1 ROC       0.1814
     62 H13        14.3311   22.0181   18.2659 H           1 ROC       0.0672
     63 H14        13.9877   22.3306   20.3881 H           1 ROC       0.2101
     64 H15        16.6260   21.0041   18.4046 H           1 ROC       0.0606
     65 H16        15.8750   23.2430   20.0992 H           1 ROC       0.1857
     66 H17        17.3428   20.9965   21.0914 H           1 ROC       0.0449
     67 H18        17.3032   19.6618   20.0005 H           1 ROC       0.0449
     68 H19        15.2488   21.4068   22.5527 H           1 ROC       0.0557
     69 H20        15.7931   17.8282   20.3941 H           1 ROC       0.0557
     70 H21        13.5960   20.3128   23.9369 H           1 ROC       0.0599
     71 H22        14.0861   16.7750   21.7309 H           1 ROC       0.0599
     72 H23        12.9799   18.0048   23.5051 H           1 ROC       0.0559
     73 H24        13.8647   18.9089   16.4672 H           1 ROC       0.2057
     74 H25        13.5576   19.2928   18.8529 H           1 ROC       0.0841
     75 H26        15.1422   19.1972   18.2164 H           1 ROC       0.0841
     76 H27        12.1351   21.1935   17.0335 H           1 ROC       0.1100
     77 H28        10.8415   20.6433   15.0727 H           1 ROC       0.0348
     78 H29        11.8079   19.2072   14.7398 H           1 ROC       0.0348
     79 H30        12.7280   22.1166   14.5970 H           1 ROC       0.0309
     80 H31        12.9466   21.8881   12.2421 H           1 ROC       0.0268
     81 H32        11.3345   21.3160   12.6626 H           1 ROC       0.0268
     82 H33        12.5368   19.8820   10.9434 H           1 ROC       0.0265
     83 H34        12.0187   18.9717   12.3577 H           1 ROC       0.0265
     84 H35        14.8400   19.9522   11.7009 H           1 ROC       0.0265
     85 H36        14.2935   18.2742   11.8077 H           1 ROC       0.0265
     86 H37        15.6161   19.0131   13.7952 H           1 ROC       0.0270
     87 H38        14.0088   18.4466   14.2346 H           1 ROC       0.0270
     88 H39        14.9134   21.3576   13.8890 H           1 ROC       0.0355
     89 H40        15.7138   20.2760   15.9900 H           1 ROC       0.0818
     90 H41        14.6978   21.7133   16.1690 H           1 ROC       0.0818
     91 H42        12.3874   17.7365   16.5233 H           1 ROC       0.1859
     92 H43        10.4927   14.7873   16.9156 H           1 ROC       0.0254
     93 H44        11.7039   15.6268   15.9361 H           1 ROC       0.0254
     94 H45        10.0203   16.1644   15.9058 H           1 ROC       0.0254
     95 H46         9.4043   15.9573   18.9066 H           1 ROC       0.0254
     96 H47         9.0026   17.3767   17.9332 H           1 ROC       0.0254
     97 H48         9.9344   17.5571   19.4305 H           1 ROC       0.0254
     98 H49        11.8771   15.2027   19.0820 H           1 ROC       0.0254
     99 H50        12.3918   16.8449   19.4926 H           1 ROC       0.0254
    100 H51        13.1285   16.0089   18.1221 H           1 ROC       0.0254
@<TRIPOS>BOND
     1     2     1   2
     2     2     4   1
     3    13     2  am
     4     4     3  ar
     5     3    12  ar
     6     4     5  ar
     7     5     6  ar
     8     6     7  ar
     9     7     8  ar
    10    12     7  ar
    11     8     9  ar
    12    10     9  ar
    13    11    10  ar
    14    12    11  ar
    15    14    13   1
    16    15    14   1
    17    14    17   1
    18    15    16   2
    19    24    15  am
    20    17    18   1
    21    18    19   2
    22    18    20  am
    23    21    22   1
    24    23    21   1
    25    21    33   1
    26    23    24   1
    27    23    25   1
    28    25    26   1
    29    26    27  ar
    30    26    28  ar
    31    27    29  ar
    32    28    30  ar
    33    29    31  ar
    34    30    31  ar
    35    33    32   1
    36    32    34   1
    37    32    44   1
    38    34    35   1
    39    34    37   1
    40    35    36   2
    41    35    45  am
    42    37    38   1
    43    38    39   1
    44    38    43   1
    45    39    40   1
    46    40    41   1
    47    41    42   1
    48    42    43   1
    49    43    44   1
    50    45    46   1
    51    46    47   1
    52    46    48   1
    53    46    49   1
    54     5    50   1
    55     6    51   1
    56     8    52   1
    57     9    53   1
    58    10    54   1
    59    11    55   1
    60    13    56   1
    61    14    57   1
    62    17    58   1
    63    17    59   1
    64    20    60   1
    65    20    61   1
    66    21    62   1
    67    22    63   1
    68    23    64   1
    69    24    65   1
    70    25    66   1
    71    25    67   1
    72    27    68   1
    73    28    69   1
    74    29    70   1
    75    30    71   1
    76    31    72   1
    77    32    73   1
    78    33    74   1
    79    33    75   1
    80    34    76   1
    81    37    77   1
    82    37    78   1
    83    38    79   1
    84    39    80   1
    85    39    81   1
    86    40    82   1
    87    40    83   1
    88    41    84   1
    89    41    85   1
    90    42    86   1
    91    42    87   1
    92    43    88   1
    93    44    89   1
    94    44    90   1
    95    45    91   1
    96    47    92   1
    97    47    93   1
    98    47    94   1
    99    48    95   1
   100    48    96   1
   101    48    97   1
   102    49    98   1
   103    49    99   1
   104    49   100   1
@<TRIPOS>SUBSTRUCTURE
     1  ROC      2

