@<TRIPOS>MOLECULE
3cyx_ligand_024
   100   104
SMALL
GAST_HUCK
****
This file was generated by PARSER (from files_GN.cpp)

@<TRIPOS>ATOM
      1 O1         23.5875   26.9244   22.1070 O.2         1 ROC      -0.3762
      2 C1         23.6910   26.6140   20.9194 C.2         1 ROC       0.2293
      3 N1         25.0441   26.0905   19.0146 N.ar        1 ROC      -0.2737
      4 C2         24.9502   26.4131   20.3368 C.ar        1 ROC       0.1219
      5 C3         26.1615   26.5071   21.0690 C.ar        1 ROC      -0.0136
      6 C4         27.3967   26.2508   20.4462 C.ar        1 ROC      -0.0314
      7 C5         27.4383   25.9001   19.0809 C.ar        1 ROC       0.0097
      8 C6         28.6503   25.6003   18.4169 C.ar        1 ROC      -0.0444
      9 C7         28.6339   25.2439   17.0567 C.ar        1 ROC      -0.0546
     10 C8         27.4178   25.1945   16.3472 C.ar        1 ROC      -0.0545
     11 C9R        26.2092   25.4941   17.0009 C.ar        1 ROC      -0.0370
     12 C10        26.2147   25.8391   18.3677 C.ar        1 ROC       0.0527
     13 N2         22.5786   26.4462   20.2070 N.am        1 ROC      -0.2600
     14 C11        21.2153   26.6074   20.6613 C.3         1 ROC       0.1473
     15 C12        20.3465   26.0472   19.6305 C.2         1 ROC       0.2045
     16 O2         20.6077   26.3087   18.4541 O.2         1 ROC      -0.3943
     17 C13        20.8943   28.1217   20.9707 C.3         1 ROC       0.0773
     18 C14        20.5549   28.4029   22.3552 C.2         1 ROC       0.1780
     19 O3         19.6471   29.1757   22.6380 O.2         1 ROC      -0.3970
     20 N3         21.2752   27.9093   23.3410 N.am        1 ROC      -0.3007
     21 C15        17.0537   24.4612   19.3428 C.3         1 ROC       0.1194
     22 O4         16.5191   23.2348   19.8522 O.3         1 ROC      -0.3840
     23 C16        18.5969   24.3826   19.0033 C.3         1 ROC       0.0823
     24 N4         19.3600   25.1980   19.9294 N.am        1 ROC      -0.2772
     25 C17        19.2211   22.9327   18.9059 C.3         1 ROC       0.0066
     26 C18        20.5236   22.7416   19.6125 C.ar        1 ROC      -0.0408
     27 C19        20.6121   21.9284   20.7706 C.ar        1 ROC      -0.0603
     28 C20        21.6770   23.4416   19.1896 C.ar        1 ROC      -0.0603
     29 C21        21.8030   21.8626   21.5155 C.ar        1 ROC      -0.0686
     30 C22        22.8783   23.3509   19.9181 C.ar        1 ROC      -0.0686
     31 C23        22.9331   22.5877   21.0963 C.ar        1 ROC      -0.0687
     32 N5         15.8747   24.3579   16.8977 N.4         1 ROC       0.2562
     33 C24        16.1166   25.0425   18.2277 C.3         1 ROC      -0.0008
     34 C25        17.0293   24.2732   15.9192 C.3         1 ROC       0.0688
     35 C26        17.6971   25.5384   15.5986 C.2         1 ROC       0.2251
     36 O5         17.1814   26.5977   15.9398 O.2         1 ROC      -0.3909
     37 C27        16.5764   23.6312   14.5652 C.3         1 ROC       0.0113
     38 C28        15.8559   22.2630   14.7552 C.3         1 ROC      -0.0261
     39 C29        15.4003   21.6097   13.4104 C.3         1 ROC      -0.0494
     40 C30        14.1796   22.3165   12.7595 C.3         1 ROC      -0.0528
     41 C31        13.0050   22.4675   13.7610 C.3         1 ROC      -0.0526
     42 C32        13.4426   23.1400   15.0909 C.3         1 ROC      -0.0451
     43 C33        14.6566   22.4040   15.7423 C.3         1 ROC       0.0024
     44 C34        15.1497   23.0498   17.0690 C.3         1 ROC      -0.0266
     45 N6         18.7891   25.5389   14.8394 N.am        1 ROC      -0.2771
     46 C35        19.6051   26.6453   14.3854 C.3         1 ROC       0.0448
     47 C36        20.3820   27.2573   15.5913 C.3         1 ROC      -0.0396
     48 C37        18.7920   27.7634   13.6651 C.3         1 ROC      -0.0396
     49 C38        20.6203   26.0477   13.3628 C.3         1 ROC      -0.0396
     50 H1         26.1554   26.7581   22.0621 H           1 ROC       0.0729
     51 H2         28.2552   26.3147   20.9975 H           1 ROC       0.0774
     52 H3         29.5417   25.6278   18.9181 H           1 ROC       0.0657
     53 H4         29.5092   25.0076   16.5805 H           1 ROC       0.0652
     54 H5         27.4083   24.9282   15.3602 H           1 ROC       0.0657
     55 H6         25.3266   25.4470   16.4872 H           1 ROC       0.0653
     56 H7         22.6994   26.1951   19.2759 H           1 ROC       0.1882
     57 H8         21.0914   26.0008   21.5700 H           1 ROC       0.0826
     58 H9         20.0878   28.4948   20.3231 H           1 ROC       0.0551
     59 H10        21.7726   28.7302   20.7414 H           1 ROC       0.0551
     60 H11        21.0609   28.1425   24.2630 H           1 ROC       0.1814
     61 H12        22.0270   27.3150   23.1433 H           1 ROC       0.1814
     62 H13        16.9393   25.1546   20.1799 H           1 ROC       0.0672
     63 H14        15.8228   23.5026   20.5030 H           1 ROC       0.2101
     64 H15        18.7135   24.8108   18.0059 H           1 ROC       0.0606
     65 H16        19.2039   25.0219   20.8699 H           1 ROC       0.1857
     66 H17        19.3810   22.6732   17.8570 H           1 ROC       0.0449
     67 H18        18.5200   22.1863   19.2786 H           1 ROC       0.0449
     68 H19        19.8003   21.4001   21.1006 H           1 ROC       0.0557
     69 H20        21.6455   24.0364   18.3606 H           1 ROC       0.0557
     70 H21        21.8446   21.2959   22.3666 H           1 ROC       0.0599
     71 H22        23.7111   23.8561   19.5995 H           1 ROC       0.0599
     72 H23        23.7950   22.5572   21.6449 H           1 ROC       0.0559
     73 H24        15.1952   24.9694   16.4347 H           1 ROC       0.2057
     74 H25        16.4489   26.0695   18.0477 H           1 ROC       0.0841
     75 H26        15.1291   25.1729   18.6853 H           1 ROC       0.0841
     76 H27        17.7801   23.6084   16.3521 H           1 ROC       0.1100
     77 H28        17.4489   23.4639   13.9260 H           1 ROC       0.0348
     78 H29        15.9169   24.3261   14.0427 H           1 ROC       0.0348
     79 H30        16.5821   21.5742   15.2023 H           1 ROC       0.0309
     80 H31        15.1312   20.5660   13.6043 H           1 ROC       0.0268
     81 H32        16.2339   21.6015   12.7010 H           1 ROC       0.0268
     82 H33        13.8464   21.7304   11.8985 H           1 ROC       0.0265
     83 H34        14.4784   23.3004   12.3898 H           1 ROC       0.0265
     84 H35        12.5949   21.4770   13.9772 H           1 ROC       0.0265
     85 H36        12.2138   23.0589   13.2961 H           1 ROC       0.0265
     86 H37        12.5960   23.1263   15.7808 H           1 ROC       0.0270
     87 H38        13.6909   24.1875   14.8977 H           1 ROC       0.0270
     88 H39        14.3116   21.3928   15.9911 H           1 ROC       0.0355
     89 H40        14.2816   23.1817   17.7182 H           1 ROC       0.0818
     90 H41        15.8185   22.3290   17.5598 H           1 ROC       0.0818
     91 H42        19.0791   24.6617   14.5455 H           1 ROC       0.1859
     92 H43        21.0364   28.0754   15.2651 H           1 ROC       0.0254
     93 H44        20.9955   26.4930   16.0811 H           1 ROC       0.0254
     94 H45        19.6807   27.6578   16.3268 H           1 ROC       0.0254
     95 H46        19.4625   28.4750   13.1770 H           1 ROC       0.0254
     96 H47        18.1773   28.3282   14.3692 H           1 ROC       0.0254
     97 H48        18.1371   27.3214   12.9124 H           1 ROC       0.0254
     98 H49        21.3101   26.8138   13.0030 H           1 ROC       0.0254
     99 H50        20.0833   25.6368   12.5053 H           1 ROC       0.0254
    100 H51        21.2084   25.2447   13.8122 H           1 ROC       0.0254
@<TRIPOS>BOND
     1     2     1   2
     2     2     4   1
     3    13     2  am
     4     4     3  ar
     5     3    12  ar
     6     4     5  ar
     7     5     6  ar
     8     6     7  ar
     9     7     8  ar
    10    12     7  ar
    11     8     9  ar
    12    10     9  ar
    13    11    10  ar
    14    12    11  ar
    15    14    13   1
    16    15    14   1
    17    14    17   1
    18    15    16   2
    19    24    15  am
    20    17    18   1
    21    18    19   2
    22    18    20  am
    23    21    22   1
    24    23    21   1
    25    21    33   1
    26    23    24   1
    27    23    25   1
    28    25    26   1
    29    26    27  ar
    30    26    28  ar
    31    27    29  ar
    32    28    30  ar
    33    29    31  ar
    34    30    31  ar
    35    33    32   1
    36    32    34   1
    37    32    44   1
    38    34    35   1
    39    34    37   1
    40    35    36   2
    41    35    45  am
    42    37    38   1
    43    38    39   1
    44    38    43   1
    45    39    40   1
    46    40    41   1
    47    41    42   1
    48    42    43   1
    49    43    44   1
    50    45    46   1
    51    46    47   1
    52    46    48   1
    53    46    49   1
    54     5    50   1
    55     6    51   1
    56     8    52   1
    57     9    53   1
    58    10    54   1
    59    11    55   1
    60    13    56   1
    61    14    57   1
    62    17    58   1
    63    17    59   1
    64    20    60   1
    65    20    61   1
    66    21    62   1
    67    22    63   1
    68    23    64   1
    69    24    65   1
    70    25    66   1
    71    25    67   1
    72    27    68   1
    73    28    69   1
    74    29    70   1
    75    30    71   1
    76    31    72   1
    77    32    73   1
    78    33    74   1
    79    33    75   1
    80    34    76   1
    81    37    77   1
    82    37    78   1
    83    38    79   1
    84    39    80   1
    85    39    81   1
    86    40    82   1
    87    40    83   1
    88    41    84   1
    89    41    85   1
    90    42    86   1
    91    42    87   1
    92    43    88   1
    93    44    89   1
    94    44    90   1
    95    45    91   1
    96    47    92   1
    97    47    93   1
    98    47    94   1
    99    48    95   1
   100    48    96   1
   101    48    97   1
   102    49    98   1
   103    49    99   1
   104    49   100   1
@<TRIPOS>SUBSTRUCTURE
     1  ROC      2

