@<TRIPOS>MOLECULE
3cyx_ligand_097
   100   104
SMALL
GAST_HUCK
****
This file was generated by PARSER (from files_GN.cpp)

@<TRIPOS>ATOM
      1 O1         17.9175   20.3476   17.6397 O.2         1 ROC      -0.3762
      2 C1         16.8776   20.7069   17.0946 C.2         1 ROC       0.2293
      3 N1         16.0100   21.6303   15.0955 N.ar        1 ROC      -0.2737
      4 C2         16.9253   21.6704   16.1019 C.ar        1 ROC       0.1219
      5 C3         17.9180   22.6784   16.0652 C.ar        1 ROC      -0.0136
      6 C4         17.9134   23.6291   15.0240 C.ar        1 ROC      -0.0314
      7 C5         16.9459   23.5559   14.0009 C.ar        1 ROC       0.0097
      8 C6         16.8929   24.4776   12.9339 C.ar        1 ROC      -0.0444
      9 C7         15.9234   24.3403   11.9252 C.ar        1 ROC      -0.0546
     10 C8         14.9992   23.2767   11.9693 C.ar        1 ROC      -0.0545
     11 C9R        15.0300   22.3634   13.0409 C.ar        1 ROC      -0.0370
     12 C10        15.9898   22.5040   14.0604 C.ar        1 ROC       0.0527
     13 N2         15.7124   20.1732   17.4547 N.am        1 ROC      -0.2600
     14 C11        15.4633   19.0960   18.3761 C.3         1 ROC       0.1473
     15 C12        14.0201   18.8803   18.4144 C.2         1 ROC       0.2045
     16 O2         13.2917   19.8423   18.6445 O.2         1 ROC      -0.3943
     17 C13        15.9903   19.2994   19.8347 C.3         1 ROC       0.0773
     18 C14        16.0135   18.1226   20.6866 C.2         1 ROC       0.1780
     19 O3         15.6852   17.0110   20.2889 O.2         1 ROC      -0.3970
     20 N3         16.4715   18.1946   21.9164 N.am        1 ROC      -0.3007
     21 C15        11.1910   18.2128   17.3782 C.3         1 ROC       0.1194
     22 O4         10.4466   19.0753   18.2359 O.3         1 ROC      -0.3840
     23 C16        12.1292   17.2420   18.1950 C.3         1 ROC       0.0823
     24 N4         13.5081   17.6542   18.2743 N.am        1 ROC      -0.2772
     25 C17        11.5451   16.6804   19.5451 C.3         1 ROC       0.0066
     26 C18        12.1158   17.2083   20.8238 C.ar        1 ROC      -0.0408
     27 C19        12.0783   18.5873   21.1336 C.ar        1 ROC      -0.0603
     28 C20        12.6740   16.3312   21.7854 C.ar        1 ROC      -0.0603
     29 C21        12.6579   19.0844   22.3161 C.ar        1 ROC      -0.0686
     30 C22        13.2182   16.8155   22.9924 C.ar        1 ROC      -0.0686
     31 C23        13.2286   18.1989   23.2472 C.ar        1 ROC      -0.0687
     32 N5         10.8912   16.9354   15.1880 N.4         1 ROC       0.2562
     33 C24        10.1989   17.4969   16.4111 C.3         1 ROC      -0.0008
     34 C25        10.2822   15.6623   14.6377 C.3         1 ROC       0.0688
     35 C26        10.2127   14.5880   15.6343 C.2         1 ROC       0.2251
     36 O5         11.2616   14.2314   16.1621 O.2         1 ROC      -0.3909
     37 C27        11.0713   15.1304   13.3947 C.3         1 ROC       0.0113
     38 C28        11.3195   16.2189   12.3074 C.3         1 ROC      -0.0261
     39 C29        12.2112   15.7177   11.1292 C.3         1 ROC      -0.0494
     40 C30        13.7117   15.5717   11.5013 C.3         1 ROC      -0.0528
     41 C31        14.2809   16.8604   12.1445 C.3         1 ROC      -0.0526
     42 C32        13.4173   17.3496   13.3326 C.3         1 ROC      -0.0451
     43 C33        11.9183   17.5191   12.9307 C.3         1 ROC       0.0024
     44 C34        11.0380   17.9858   14.1212 C.3         1 ROC      -0.0266
     45 N6          9.0328   14.0976   16.0008 N.am        1 ROC      -0.2771
     46 C35         8.6578   13.0998   16.9834 C.3         1 ROC       0.0448
     47 C36         9.8187   12.3561   17.7186 C.3         1 ROC      -0.0396
     48 C37         7.7975   12.0462   16.2184 C.3         1 ROC      -0.0396
     49 C38         7.7752   13.8323   18.0386 C.3         1 ROC      -0.0396
     50 H1         18.6347   22.7473   16.7976 H           1 ROC       0.0729
     51 H2         18.6219   24.3667   15.0158 H           1 ROC       0.0774
     52 H3         17.5555   25.2569   12.8828 H           1 ROC       0.0657
     53 H4         15.8783   25.0138   11.1553 H           1 ROC       0.0652
     54 H5         14.2977   23.1712   11.2347 H           1 ROC       0.0657
     55 H6         14.3446   21.5981   13.0751 H           1 ROC       0.0653
     56 H7         14.9333   20.5355   16.9841 H           1 ROC       0.1882
     57 H8         15.9622   18.2154   17.9490 H           1 ROC       0.0826
     58 H9         15.4022   20.0782   20.3301 H           1 ROC       0.0551
     59 H10        17.0163   19.6720   19.7888 H           1 ROC       0.0551
     60 H11        16.5138   17.3874   22.4543 H           1 ROC       0.1814
     61 H12        16.7664   19.0517   22.2727 H           1 ROC       0.1814
     62 H13        11.8114   18.8722   16.7705 H           1 ROC       0.0672
     63 H14         9.7703   18.5013   18.6465 H           1 ROC       0.2101
     64 H15        12.2245   16.3598   17.5526 H           1 ROC       0.0606
     65 H16        14.1610   16.9377   18.1534 H           1 ROC       0.1857
     66 H17        11.6777   15.5966   19.5315 H           1 ROC       0.0449
     67 H18        10.4704   16.8324   19.5838 H           1 ROC       0.0449
     68 H19        11.6347   19.2497   20.5030 H           1 ROC       0.0557
     69 H20        12.6821   15.3218   21.6280 H           1 ROC       0.0557
     70 H21        12.6460   20.0861   22.5106 H           1 ROC       0.0599
     71 H22        13.6075   16.1644   23.6797 H           1 ROC       0.0599
     72 H23        13.6274   18.5574   24.1204 H           1 ROC       0.0559
     73 H24        11.8440   16.6987   15.4808 H           1 ROC       0.2057
     74 H25         9.4040   18.1900   16.1074 H           1 ROC       0.0841
     75 H26         9.7001   16.7217   16.9952 H           1 ROC       0.0841
     76 H27         9.2680   15.9024   14.2939 H           1 ROC       0.1100
     77 H28        10.5136   14.3034   12.9401 H           1 ROC       0.0348
     78 H29        12.0364   14.7327   13.7216 H           1 ROC       0.0348
     79 H30        10.3398   16.4720   11.8824 H           1 ROC       0.0309
     80 H31        12.1307   16.4333   10.3070 H           1 ROC       0.0268
     81 H32        11.8345   14.7597   10.7635 H           1 ROC       0.0268
     82 H33        14.2823   15.3445   10.5989 H           1 ROC       0.0265
     83 H34        13.8456   14.7374   12.1934 H           1 ROC       0.0265
     84 H35        14.3230   17.6514   11.3960 H           1 ROC       0.0265
     85 H36        15.3000   16.6729   12.4923 H           1 ROC       0.0265
     86 H37        13.8158   18.3055   13.6856 H           1 ROC       0.0270
     87 H38        13.5068   16.6302   14.1467 H           1 ROC       0.0270
     88 H39        11.8755   18.3054   12.1679 H           1 ROC       0.0355
     89 H40        11.4874   18.8952   14.5231 H           1 ROC       0.0818
     90 H41        10.0528   18.2672   13.7368 H           1 ROC       0.0818
     91 H42         8.2715   14.4940   15.5412 H           1 ROC       0.1859
     92 H43         9.4200   11.5975   18.4042 H           1 ROC       0.0254
     93 H44        10.4233   13.0519   18.3048 H           1 ROC       0.0254
     94 H45        10.4632   11.8504   16.9983 H           1 ROC       0.0254
     95 H46         7.3996   11.2914   16.9036 H           1 ROC       0.0254
     96 H47         8.4065   11.5414   15.4622 H           1 ROC       0.0254
     97 H48         6.9529   12.5274   15.7126 H           1 ROC       0.0254
     98 H49         7.3803   13.1319   18.7752 H           1 ROC       0.0254
     99 H50         6.9273   14.3292   17.5618 H           1 ROC       0.0254
    100 H51         8.3551   14.5902   18.5657 H           1 ROC       0.0254
@<TRIPOS>BOND
     1     2     1   2
     2     2     4   1
     3    13     2  am
     4     4     3  ar
     5     3    12  ar
     6     4     5  ar
     7     5     6  ar
     8     6     7  ar
     9     7     8  ar
    10    12     7  ar
    11     8     9  ar
    12    10     9  ar
    13    11    10  ar
    14    12    11  ar
    15    14    13   1
    16    15    14   1
    17    14    17   1
    18    15    16   2
    19    24    15  am
    20    17    18   1
    21    18    19   2
    22    18    20  am
    23    21    22   1
    24    23    21   1
    25    21    33   1
    26    23    24   1
    27    23    25   1
    28    25    26   1
    29    26    27  ar
    30    26    28  ar
    31    27    29  ar
    32    28    30  ar
    33    29    31  ar
    34    30    31  ar
    35    33    32   1
    36    32    34   1
    37    32    44   1
    38    34    35   1
    39    34    37   1
    40    35    36   2
    41    35    45  am
    42    37    38   1
    43    38    39   1
    44    38    43   1
    45    39    40   1
    46    40    41   1
    47    41    42   1
    48    42    43   1
    49    43    44   1
    50    45    46   1
    51    46    47   1
    52    46    48   1
    53    46    49   1
    54     5    50   1
    55     6    51   1
    56     8    52   1
    57     9    53   1
    58    10    54   1
    59    11    55   1
    60    13    56   1
    61    14    57   1
    62    17    58   1
    63    17    59   1
    64    20    60   1
    65    20    61   1
    66    21    62   1
    67    22    63   1
    68    23    64   1
    69    24    65   1
    70    25    66   1
    71    25    67   1
    72    27    68   1
    73    28    69   1
    74    29    70   1
    75    30    71   1
    76    31    72   1
    77    32    73   1
    78    33    74   1
    79    33    75   1
    80    34    76   1
    81    37    77   1
    82    37    78   1
    83    38    79   1
    84    39    80   1
    85    39    81   1
    86    40    82   1
    87    40    83   1
    88    41    84   1
    89    41    85   1
    90    42    86   1
    91    42    87   1
    92    43    88   1
    93    44    89   1
    94    44    90   1
    95    45    91   1
    96    47    92   1
    97    47    93   1
    98    47    94   1
    99    48    95   1
   100    48    96   1
   101    48    97   1
   102    49    98   1
   103    49    99   1
   104    49   100   1
@<TRIPOS>SUBSTRUCTURE
     1  ROC      2

