@<TRIPOS>MOLECULE
3cyx_ligand_049
   100   104
SMALL
GAST_HUCK
****
This file was generated by PARSER (from files_GN.cpp)

@<TRIPOS>ATOM
      1 O1         14.0418   23.2116   15.7743 O.2         1 ROC      -0.3762
      2 C1         13.9722   22.1486   15.1778 C.2         1 ROC       0.2293
      3 N1         12.6395   20.4107   14.2366 N.ar        1 ROC      -0.2737
      4 C2         12.7272   21.5712   14.9495 C.ar        1 ROC       0.1219
      5 C3         11.5201   22.1459   15.4123 C.ar        1 ROC      -0.0136
      6 C4         10.2887   21.5250   15.1460 C.ar        1 ROC      -0.0314
      7 C5         10.2447   20.3257   14.4058 C.ar        1 ROC       0.0097
      8 C6          9.0342   19.6648   14.1013 C.ar        1 ROC      -0.0444
      9 C7          9.0462   18.4785   13.3388 C.ar        1 ROC      -0.0546
     10 C8         10.2653   17.9415   12.8797 C.ar        1 ROC      -0.0545
     11 C9R        11.4786   18.5862   13.1860 C.ar        1 ROC      -0.0370
     12 C10        11.4726   19.7724   13.9468 C.ar        1 ROC       0.0527
     13 N2         15.0847   21.5519   14.7476 N.am        1 ROC      -0.2600
     14 C11        16.4670   21.9616   14.8333 C.3         1 ROC       0.1473
     15 C12        16.9927   22.0830   16.1942 C.2         1 ROC       0.2045
     16 O2         17.7638   21.2289   16.6041 O.2         1 ROC      -0.3943
     17 C13        16.8397   23.1437   13.8806 C.3         1 ROC       0.0773
     18 C14        15.9950   24.3200   13.9757 C.2         1 ROC       0.1780
     19 O3         14.9657   24.3752   13.3204 O.2         1 ROC      -0.3970
     20 N3         16.2681   25.3141   14.7911 N.am        1 ROC      -0.3007
     21 C15        18.1978   24.2534   18.5450 C.3         1 ROC       0.1194
     22 O4         17.8866   25.5295   17.9739 O.3         1 ROC      -0.3840
     23 C16        16.9374   23.3427   18.3690 C.3         1 ROC       0.0823
     24 N4         16.6276   23.0854   16.9845 N.am        1 ROC      -0.2772
     25 C17        16.9132   22.1100   19.3320 C.3         1 ROC       0.0066
     26 C18        15.8342   21.1233   19.0359 C.ar        1 ROC      -0.0408
     27 C19        14.4715   21.4792   19.1726 C.ar        1 ROC      -0.0603
     28 C20        16.1535   19.8246   18.5670 C.ar        1 ROC      -0.0603
     29 C21        13.4550   20.5842   18.8007 C.ar        1 ROC      -0.0686
     30 C22        15.1403   18.9217   18.2139 C.ar        1 ROC      -0.0686
     31 C23        13.7871   19.3058   18.3139 C.ar        1 ROC      -0.0687
     32 N5         20.8302   24.0944   18.5135 N.4         1 ROC       0.2562
     33 C24        19.5109   23.7214   17.8942 C.3         1 ROC      -0.0008
     34 C25        21.1003   25.5665   18.6990 C.3         1 ROC       0.0688
     35 C26        20.8875   26.4001   17.5131 C.2         1 ROC       0.2251
     36 O5         20.4291   27.5203   17.6740 O.2         1 ROC      -0.3909
     37 C27        22.5600   25.7986   19.2065 C.3         1 ROC       0.0113
     38 C28        22.8591   24.9965   20.5097 C.3         1 ROC      -0.0261
     39 C29        24.3097   25.1939   21.0488 C.3         1 ROC      -0.0494
     40 C30        25.3867   24.4517   20.2158 C.3         1 ROC      -0.0528
     41 C31        25.0439   22.9507   20.0343 C.3         1 ROC      -0.0526
     42 C32        23.6141   22.7447   19.4631 C.3         1 ROC      -0.0451
     43 C33        22.5376   23.4782   20.3239 C.3         1 ROC       0.0024
     44 C34        21.0918   23.3068   19.7680 C.3         1 ROC      -0.0266
     45 N6         21.2145   25.9583   16.2946 N.am        1 ROC      -0.2771
     46 C35        21.0831   26.5534   14.9802 C.3         1 ROC       0.0448
     47 C36        20.5234   28.0102   14.9109 C.3         1 ROC      -0.0396
     48 C37        20.1439   25.6214   14.1544 C.3         1 ROC      -0.0396
     49 C38        22.5085   26.5445   14.3497 C.3         1 ROC      -0.0396
     50 H1         11.5180   23.0198   15.9347 H           1 ROC       0.0729
     51 H2          9.4221   21.9568   15.4759 H           1 ROC       0.0774
     52 H3          8.1404   20.0385   14.4247 H           1 ROC       0.0657
     53 H4          8.1618   18.0012   13.1211 H           1 ROC       0.0652
     54 H5         10.2635   17.0788   12.3305 H           1 ROC       0.0657
     55 H6         12.3578   18.1874   12.8518 H           1 ROC       0.0653
     56 H7         14.9414   20.6985   14.3012 H           1 ROC       0.1882
     57 H8         16.9779   21.1162   14.3704 H           1 ROC       0.0826
     58 H9         16.7981   22.7893   12.8381 H           1 ROC       0.0551
     59 H10        17.8824   23.4372   14.0468 H           1 ROC       0.0551
     60 H11        15.6244   26.0246   14.9063 H           1 ROC       0.1814
     61 H12        17.0671   25.2910   15.3394 H           1 ROC       0.1814
     62 H13        18.3539   24.4084   19.6191 H           1 ROC       0.0672
     63 H14        18.1655   26.2059   18.6425 H           1 ROC       0.2101
     64 H15        16.0989   23.9621   18.7068 H           1 ROC       0.0606
     65 H16        16.0093   23.7164   16.5919 H           1 ROC       0.1857
     66 H17        16.7711   22.4662   20.3617 H           1 ROC       0.0449
     67 H18        17.8940   21.6210   19.3134 H           1 ROC       0.0449
     68 H19        14.2104   22.4016   19.5240 H           1 ROC       0.0557
     69 H20        17.1261   19.5336   18.4693 H           1 ROC       0.0557
     70 H21        12.4758   20.8578   18.8781 H           1 ROC       0.0599
     71 H22        15.3814   17.9902   17.8705 H           1 ROC       0.0599
     72 H23        13.0485   18.6511   18.0359 H           1 ROC       0.0559
     73 H24        21.5253   23.7793   17.8412 H           1 ROC       0.2057
     74 H25        19.5177   24.0405   16.8507 H           1 ROC       0.0841
     75 H26        19.4600   22.6351   17.8462 H           1 ROC       0.0841
     76 H27        20.4330   25.9291   19.4933 H           1 ROC       0.1100
     77 H28        22.7131   26.8647   19.4116 H           1 ROC       0.0348
     78 H29        23.2654   25.5099   18.4224 H           1 ROC       0.0348
     79 H30        22.1864   25.3848   21.2811 H           1 ROC       0.0309
     80 H31        24.3534   24.8185   22.0770 H           1 ROC       0.0268
     81 H32        24.5496   26.2604   21.0850 H           1 ROC       0.0268
     82 H33        26.3520   24.5386   20.7223 H           1 ROC       0.0265
     83 H34        25.4858   24.9249   19.2357 H           1 ROC       0.0265
     84 H35        25.1205   22.4441   20.9995 H           1 ROC       0.0265
     85 H36        25.7705   22.4952   19.3586 H           1 ROC       0.0265
     86 H37        23.3989   21.6707   19.4404 H           1 ROC       0.0270
     87 H38        23.5836   23.1064   18.4324 H           1 ROC       0.0270
     88 H39        22.5556   23.0061   21.3185 H           1 ROC       0.0355
     89 H40        20.9326   22.2349   19.5984 H           1 ROC       0.0818
     90 H41        20.3896   23.6076   20.5547 H           1 ROC       0.0818
     91 H42        21.5712   25.0571   16.2847 H           1 ROC       0.1859
     92 H43        20.4579   28.3486   13.8774 H           1 ROC       0.0254
     93 H44        21.1756   28.6941   15.4599 H           1 ROC       0.0254
     94 H45        19.5182   28.0665   15.3353 H           1 ROC       0.0254
     95 H46        20.0707   25.9613   13.1189 H           1 ROC       0.0254
     96 H47        19.1412   25.6216   14.5849 H           1 ROC       0.0254
     97 H48        20.5134   24.5935   14.1490 H           1 ROC       0.0254
     98 H49        22.4807   26.9285   13.3283 H           1 ROC       0.0254
     99 H50        22.9144   25.5314   14.3218 H           1 ROC       0.0254
    100 H51        23.1887   27.1680   14.9329 H           1 ROC       0.0254
@<TRIPOS>BOND
     1     2     1   2
     2     2     4   1
     3    13     2  am
     4     4     3  ar
     5     3    12  ar
     6     4     5  ar
     7     5     6  ar
     8     6     7  ar
     9     7     8  ar
    10    12     7  ar
    11     8     9  ar
    12    10     9  ar
    13    11    10  ar
    14    12    11  ar
    15    14    13   1
    16    15    14   1
    17    14    17   1
    18    15    16   2
    19    24    15  am
    20    17    18   1
    21    18    19   2
    22    18    20  am
    23    21    22   1
    24    23    21   1
    25    21    33   1
    26    23    24   1
    27    23    25   1
    28    25    26   1
    29    26    27  ar
    30    26    28  ar
    31    27    29  ar
    32    28    30  ar
    33    29    31  ar
    34    30    31  ar
    35    33    32   1
    36    32    34   1
    37    32    44   1
    38    34    35   1
    39    34    37   1
    40    35    36   2
    41    35    45  am
    42    37    38   1
    43    38    39   1
    44    38    43   1
    45    39    40   1
    46    40    41   1
    47    41    42   1
    48    42    43   1
    49    43    44   1
    50    45    46   1
    51    46    47   1
    52    46    48   1
    53    46    49   1
    54     5    50   1
    55     6    51   1
    56     8    52   1
    57     9    53   1
    58    10    54   1
    59    11    55   1
    60    13    56   1
    61    14    57   1
    62    17    58   1
    63    17    59   1
    64    20    60   1
    65    20    61   1
    66    21    62   1
    67    22    63   1
    68    23    64   1
    69    24    65   1
    70    25    66   1
    71    25    67   1
    72    27    68   1
    73    28    69   1
    74    29    70   1
    75    30    71   1
    76    31    72   1
    77    32    73   1
    78    33    74   1
    79    33    75   1
    80    34    76   1
    81    37    77   1
    82    37    78   1
    83    38    79   1
    84    39    80   1
    85    39    81   1
    86    40    82   1
    87    40    83   1
    88    41    84   1
    89    41    85   1
    90    42    86   1
    91    42    87   1
    92    43    88   1
    93    44    89   1
    94    44    90   1
    95    45    91   1
    96    47    92   1
    97    47    93   1
    98    47    94   1
    99    48    95   1
   100    48    96   1
   101    48    97   1
   102    49    98   1
   103    49    99   1
   104    49   100   1
@<TRIPOS>SUBSTRUCTURE
     1  ROC      2

