@<TRIPOS>MOLECULE
3cyx_ligand_007
   100   104
SMALL
GAST_HUCK
****
This file was generated by PARSER (from files_GN.cpp)

@<TRIPOS>ATOM
      1 O1         22.9510   26.1619   18.6848 O.2         1 ROC      -0.3762
      2 C1         23.0892   25.5417   19.7327 C.2         1 ROC       0.2293
      3 N1         24.4836   24.2318   21.1384 N.ar        1 ROC      -0.2737
      4 C2         24.1735   24.6849   19.8904 C.ar        1 ROC       0.1219
      5 C3         24.9657   24.2308   18.8055 C.ar        1 ROC      -0.0136
      6 C4         26.0353   23.3480   19.0372 C.ar        1 ROC      -0.0314
      7 C5         26.3323   22.9232   20.3490 C.ar        1 ROC       0.0097
      8 C6         27.3952   22.0361   20.6337 C.ar        1 ROC      -0.0444
      9 C7         27.6286   21.6147   21.9552 C.ar        1 ROC      -0.0546
     10 C8         26.8131   22.0786   23.0030 C.ar        1 ROC      -0.0545
     11 C9R        25.7680   22.9816   22.7361 C.ar        1 ROC      -0.0370
     12 C10        25.5198   23.3969   21.4115 C.ar        1 ROC       0.0527
     13 N2         22.1945   25.6700   20.7096 N.am        1 ROC      -0.2600
     14 C11        21.0085   26.4829   20.7469 C.3         1 ROC       0.1473
     15 C12        20.0754   26.0990   19.6871 C.2         1 ROC       0.2045
     16 O2         20.1200   26.6973   18.6125 O.2         1 ROC      -0.3943
     17 C13        21.3845   28.0009   20.7883 C.3         1 ROC       0.0773
     18 C14        20.2861   28.8518   21.2024 C.2         1 ROC       0.1780
     19 O3         19.6043   29.4473   20.3799 O.2         1 ROC      -0.3970
     20 N3         19.9880   29.0037   22.4762 N.am        1 ROC      -0.3007
     21 C15        16.8990   24.5272   19.1736 C.3         1 ROC       0.1194
     22 O4         16.3771   23.3219   19.7329 O.3         1 ROC      -0.3840
     23 C16        18.4304   24.4253   18.8320 C.3         1 ROC       0.0823
     24 N4         19.2493   25.0633   19.8475 N.am        1 ROC      -0.2772
     25 C17        18.9531   22.9775   18.5187 C.3         1 ROC       0.0066
     26 C18        19.7971   22.3472   19.5734 C.ar        1 ROC      -0.0408
     27 C19        19.2660   21.4020   20.4841 C.ar        1 ROC      -0.0603
     28 C20        21.1429   22.7574   19.7320 C.ar        1 ROC      -0.0603
     29 C21        20.0515   20.9108   21.5438 C.ar        1 ROC      -0.0686
     30 C22        21.9307   22.2774   20.7952 C.ar        1 ROC      -0.0686
     31 C23        21.3713   21.3697   21.7099 C.ar        1 ROC      -0.0687
     32 N5         15.8215   24.3583   16.6834 N.4         1 ROC       0.2562
     33 C24        15.9683   25.0510   18.0237 C.3         1 ROC      -0.0008
     34 C25        17.0223   24.2947   15.7562 C.3         1 ROC       0.0688
     35 C26        17.7089   25.5604   15.4730 C.2         1 ROC       0.2251
     36 O5         17.1654   26.6240   15.7435 O.2         1 ROC      -0.3909
     37 C27        16.6434   23.6479   14.3808 C.3         1 ROC       0.0113
     38 C28        15.9563   22.2608   14.5379 C.3         1 ROC      -0.0261
     39 C29        15.5889   21.6004   13.1733 C.3         1 ROC      -0.0494
     40 C30        14.3834   22.2765   12.4671 C.3         1 ROC      -0.0528
     41 C31        13.1569   22.3845   13.4123 C.3         1 ROC      -0.0526
     42 C32        13.5069   23.0654   14.7650 C.3         1 ROC      -0.0451
     43 C33        14.7108   22.3681   15.4717 C.3         1 ROC       0.0024
     44 C34        15.1160   23.0355   16.8218 C.3         1 ROC      -0.0266
     45 N6         18.8678   25.5412   14.8188 N.am        1 ROC      -0.2771
     46 C35        19.7330   26.6328   14.4210 C.3         1 ROC       0.0448
     47 C36        20.4421   27.2314   15.6727 C.3         1 ROC      -0.0396
     48 C37        18.9840   27.7579   13.6390 C.3         1 ROC      -0.0396
     49 C38        20.8119   26.0154   13.4783 C.3         1 ROC      -0.0396
     50 H1         24.7674   24.5285   17.8452 H           1 ROC       0.0729
     51 H2         26.5880   23.0148   18.2438 H           1 ROC       0.0774
     52 H3         27.9915   21.6837   19.8823 H           1 ROC       0.0657
     53 H4         28.3817   20.9512   22.1529 H           1 ROC       0.0652
     54 H5         26.9708   21.7507   23.9583 H           1 ROC       0.0657
     55 H6         25.1773   23.3129   23.5022 H           1 ROC       0.0653
     56 H7         22.3614   25.1437   21.5072 H           1 ROC       0.1882
     57 H8         20.5305   26.2541   21.7013 H           1 ROC       0.0826
     58 H9         21.7415   28.3227   19.8011 H           1 ROC       0.0551
     59 H10        22.2198   28.1449   21.4755 H           1 ROC       0.0551
     60 H11        19.2559   29.5823   22.7371 H           1 ROC       0.1814
     61 H12        20.5125   28.5518   23.1563 H           1 ROC       0.1814
     62 H13        16.7940   25.2633   19.9792 H           1 ROC       0.0672
     63 H14        15.5878   23.6057   20.2578 H           1 ROC       0.2101
     64 H15        18.5664   24.9877   17.9063 H           1 ROC       0.0606
     65 H16        19.2329   24.6616   20.7313 H           1 ROC       0.1857
     66 H17        19.5453   23.0023   17.5984 H           1 ROC       0.0449
     67 H18        18.1167   22.3129   18.2933 H           1 ROC       0.0449
     68 H19        18.2978   21.0825   20.3940 H           1 ROC       0.0557
     69 H20        21.5557   23.4352   19.0826 H           1 ROC       0.0557
     70 H21        19.6553   20.2378   22.2101 H           1 ROC       0.0599
     71 H22        22.9031   22.6089   20.9122 H           1 ROC       0.0599
     72 H23        21.9249   21.0482   22.5021 H           1 ROC       0.0559
     73 H24        15.1561   24.9514   16.1864 H           1 ROC       0.2057
     74 H25        16.2462   26.0912   17.8517 H           1 ROC       0.0841
     75 H26        14.9655   25.1189   18.4532 H           1 ROC       0.0841
     76 H27        17.7584   23.6307   16.2101 H           1 ROC       0.1100
     77 H28        17.5428   23.5046   13.7748 H           1 ROC       0.0348
     78 H29        15.9885   24.3342   13.8361 H           1 ROC       0.0348
     79 H30        16.6827   21.5955   15.0187 H           1 ROC       0.0309
     80 H31        15.3416   20.5504   13.3484 H           1 ROC       0.0268
     81 H32        16.4540   21.6189   12.5043 H           1 ROC       0.0268
     82 H33        14.1093   21.6932   11.5824 H           1 ROC       0.0265
     83 H34        14.6710   23.2733   12.1210 H           1 ROC       0.0265
     84 H35        12.7694   21.3786   13.6036 H           1 ROC       0.0265
     85 H36        12.3671   22.9516   12.9085 H           1 ROC       0.0265
     86 H37        12.6270   23.0177   15.4094 H           1 ROC       0.0270
     87 H38        13.7254   24.1194   14.5867 H           1 ROC       0.0270
     88 H39        14.3880   21.3469   15.7075 H           1 ROC       0.0355
     89 H40        14.2045   23.1532   17.4143 H           1 ROC       0.0818
     90 H41        15.7594   22.3317   17.3637 H           1 ROC       0.0818
     91 H42        19.1895   24.6565   14.5852 H           1 ROC       0.1859
     92 H43        21.1664   27.9985   15.3832 H           1 ROC       0.0254
     93 H44        20.9692   26.4492   16.2213 H           1 ROC       0.0254
     94 H45        19.7108   27.6855   16.3419 H           1 ROC       0.0254
     95 H46        19.6949   28.4672   13.2026 H           1 ROC       0.0254
     96 H47        18.3249   28.3259   14.2949 H           1 ROC       0.0254
     97 H48        18.3807   27.3258   12.8386 H           1 ROC       0.0254
     98 H49        21.5293   26.7749   13.1554 H           1 ROC       0.0254
     99 H50        20.3373   25.5902   12.5903 H           1 ROC       0.0254
    100 H51        21.3652   25.2190   13.9830 H           1 ROC       0.0254
@<TRIPOS>BOND
     1     2     1   2
     2     2     4   1
     3    13     2  am
     4     4     3  ar
     5     3    12  ar
     6     4     5  ar
     7     5     6  ar
     8     6     7  ar
     9     7     8  ar
    10    12     7  ar
    11     8     9  ar
    12    10     9  ar
    13    11    10  ar
    14    12    11  ar
    15    14    13   1
    16    15    14   1
    17    14    17   1
    18    15    16   2
    19    24    15  am
    20    17    18   1
    21    18    19   2
    22    18    20  am
    23    21    22   1
    24    23    21   1
    25    21    33   1
    26    23    24   1
    27    23    25   1
    28    25    26   1
    29    26    27  ar
    30    26    28  ar
    31    27    29  ar
    32    28    30  ar
    33    29    31  ar
    34    30    31  ar
    35    33    32   1
    36    32    34   1
    37    32    44   1
    38    34    35   1
    39    34    37   1
    40    35    36   2
    41    35    45  am
    42    37    38   1
    43    38    39   1
    44    38    43   1
    45    39    40   1
    46    40    41   1
    47    41    42   1
    48    42    43   1
    49    43    44   1
    50    45    46   1
    51    46    47   1
    52    46    48   1
    53    46    49   1
    54     5    50   1
    55     6    51   1
    56     8    52   1
    57     9    53   1
    58    10    54   1
    59    11    55   1
    60    13    56   1
    61    14    57   1
    62    17    58   1
    63    17    59   1
    64    20    60   1
    65    20    61   1
    66    21    62   1
    67    22    63   1
    68    23    64   1
    69    24    65   1
    70    25    66   1
    71    25    67   1
    72    27    68   1
    73    28    69   1
    74    29    70   1
    75    30    71   1
    76    31    72   1
    77    32    73   1
    78    33    74   1
    79    33    75   1
    80    34    76   1
    81    37    77   1
    82    37    78   1
    83    38    79   1
    84    39    80   1
    85    39    81   1
    86    40    82   1
    87    40    83   1
    88    41    84   1
    89    41    85   1
    90    42    86   1
    91    42    87   1
    92    43    88   1
    93    44    89   1
    94    44    90   1
    95    45    91   1
    96    47    92   1
    97    47    93   1
    98    47    94   1
    99    48    95   1
   100    48    96   1
   101    48    97   1
   102    49    98   1
   103    49    99   1
   104    49   100   1
@<TRIPOS>SUBSTRUCTURE
     1  ROC      2

