@<TRIPOS>MOLECULE
3cyx_ligand_079
   100   104
SMALL
GAST_HUCK
****
This file was generated by PARSER (from files_GN.cpp)

@<TRIPOS>ATOM
      1 O1         12.6997   20.9155   16.1111 O.2         1 ROC      -0.3762
      2 C1         12.8451   20.8664   17.3278 C.2         1 ROC       0.2293
      3 N1         12.7623   19.6516   19.3680 N.ar        1 ROC      -0.2737
      4 C2         12.5263   19.7053   18.0263 C.ar        1 ROC       0.1219
      5 C3         12.0030   18.5465   17.4018 C.ar        1 ROC      -0.0136
      6 C4         11.7640   17.3865   18.1602 C.ar        1 ROC      -0.0314
      7 C5         12.0436   17.3727   19.5423 C.ar        1 ROC       0.0097
      8 C6         11.8581   16.2212   20.3361 C.ar        1 ROC      -0.0444
      9 C7         12.1741   16.2506   21.7077 C.ar        1 ROC      -0.0546
     10 C8         12.6547   17.4340   22.3000 C.ar        1 ROC      -0.0545
     11 C9R        12.8365   18.5901   21.5184 C.ar        1 ROC      -0.0370
     12 C10        12.5437   18.5591   20.1401 C.ar        1 ROC       0.0527
     13 N2         13.3678   21.9080   17.9703 N.am        1 ROC      -0.2600
     14 C11        13.8540   23.1336   17.3833 C.3         1 ROC       0.1473
     15 C12        15.1060   22.9529   16.6493 C.2         1 ROC       0.2045
     16 O2         15.5374   21.8127   16.4689 O.2         1 ROC      -0.3943
     17 C13        13.9149   24.2386   18.4838 C.3         1 ROC       0.0773
     18 C14        15.2230   24.5030   19.0549 C.2         1 ROC       0.1780
     19 O3         15.9411   23.5854   19.4160 O.2         1 ROC      -0.3970
     20 N3         15.6331   25.7360   19.2563 N.am        1 ROC      -0.3007
     21 C15        18.0474   24.9221   15.7436 C.3         1 ROC       0.1194
     22 O4         19.2731   24.4944   15.1460 O.3         1 ROC      -0.3840
     23 C16        16.9011   23.9489   15.2748 C.3         1 ROC       0.0823
     24 N4         15.7523   24.0006   16.1489 N.am        1 ROC      -0.2772
     25 C17        16.4147   24.2170   13.8118 C.3         1 ROC       0.0066
     26 C18        15.3691   23.2579   13.3351 C.ar        1 ROC      -0.0408
     27 C19        14.0615   23.2949   13.8758 C.ar        1 ROC      -0.0603
     28 C20        15.6579   22.2811   12.3495 C.ar        1 ROC      -0.0603
     29 C21        13.0679   22.3941   13.4432 C.ar        1 ROC      -0.0686
     30 C22        14.6737   21.3615   11.9347 C.ar        1 ROC      -0.0686
     31 C23        13.3778   21.4222   12.4747 C.ar        1 ROC      -0.0687
     32 N5         19.5352   25.3074   17.9637 N.4         1 ROC       0.2562
     33 C24        18.1970   25.0291   17.3032 C.3         1 ROC      -0.0008
     34 C25        20.4970   24.1430   18.0267 C.3         1 ROC       0.0688
     35 C26        19.9132   23.0176   18.7575 C.2         1 ROC       0.2251
     36 O5         19.4381   22.0746   18.1353 O.2         1 ROC      -0.3909
     37 C27        21.8830   24.4818   18.6816 C.3         1 ROC       0.0113
     38 C28        22.4924   25.8418   18.2353 C.3         1 ROC      -0.0261
     39 C29        23.7682   26.2345   19.0453 C.3         1 ROC      -0.0494
     40 C30        23.4701   26.6654   20.5063 C.3         1 ROC      -0.0528
     41 C31        22.3723   27.7584   20.5758 C.3         1 ROC      -0.0526
     42 C32        21.0992   27.3978   19.7629 C.3         1 ROC      -0.0451
     43 C33        21.4296   26.9805   18.2951 C.3         1 ROC       0.0024
     44 C34        20.1712   26.5720   17.4752 C.3         1 ROC      -0.0266
     45 N6         19.9276   23.0253   20.0848 N.am        1 ROC      -0.2771
     46 C35        19.7085   21.9273   20.9996 C.3         1 ROC       0.0448
     47 C36        19.7944   22.5418   22.4347 C.3         1 ROC      -0.0396
     48 C37        20.8284   20.8465   20.8836 C.3         1 ROC      -0.0396
     49 C38        18.3144   21.2765   20.7509 C.3         1 ROC      -0.0396
     50 H1         11.8045   18.5310   16.3975 H           1 ROC       0.0729
     51 H2         11.3986   16.5511   17.6960 H           1 ROC       0.0774
     52 H3         11.4963   15.3582   19.9241 H           1 ROC       0.0657
     53 H4         12.0402   15.4131   22.2795 H           1 ROC       0.0652
     54 H5         12.8733   17.4543   23.3001 H           1 ROC       0.0657
     55 H6         13.1932   19.4448   21.9523 H           1 ROC       0.0653
     56 H7         13.4466   21.8287   18.9353 H           1 ROC       0.1882
     57 H8         13.0981   23.4664   16.6624 H           1 ROC       0.0826
     58 H9         13.2529   23.9672   19.3110 H           1 ROC       0.0551
     59 H10        13.5074   25.1590   18.0628 H           1 ROC       0.0551
     60 H11        16.4945   25.9028   19.6729 H           1 ROC       0.1814
     61 H12        15.0647   26.4793   18.9941 H           1 ROC       0.1814
     62 H13        17.8408   25.9271   15.3596 H           1 ROC       0.0672
     63 H14        19.1541   24.5883   14.1764 H           1 ROC       0.2101
     64 H15        17.3434   22.9489   15.2691 H           1 ROC       0.0606
     65 H16        15.3699   24.8777   16.3174 H           1 ROC       0.1857
     66 H17        17.2747   24.1646   13.1381 H           1 ROC       0.0449
     67 H18        16.0259   25.2351   13.7356 H           1 ROC       0.0449
     68 H19        13.8148   23.9887   14.5852 H           1 ROC       0.0557
     69 H20        16.5871   22.2254   11.9288 H           1 ROC       0.0557
     70 H21        12.1240   22.4444   13.8386 H           1 ROC       0.0599
     71 H22        14.9023   20.6429   11.2489 H           1 ROC       0.0599
     72 H23        12.6606   20.7617   12.1634 H           1 ROC       0.0559
     73 H24        19.2992   25.5014   18.9385 H           1 ROC       0.2057
     74 H25        17.7728   24.1339   17.7586 H           1 ROC       0.0841
     75 H26        17.5322   25.8374   17.6182 H           1 ROC       0.0841
     76 H27        20.7067   23.8334   17.0021 H           1 ROC       0.1100
     77 H28        22.5967   23.6848   18.4418 H           1 ROC       0.0348
     78 H29        21.7861   24.4968   19.7699 H           1 ROC       0.0348
     79 H30        22.8035   25.7305   17.1898 H           1 ROC       0.0309
     80 H31        24.2610   27.0693   18.5383 H           1 ROC       0.0268
     81 H32        24.4733   25.3973   19.0530 H           1 ROC       0.0268
     82 H33        24.3877   27.0523   20.9598 H           1 ROC       0.0265
     83 H34        23.1587   25.8021   21.0985 H           1 ROC       0.0265
     84 H35        22.7901   28.6882   20.1884 H           1 ROC       0.0265
     85 H36        22.1010   27.9315   21.6222 H           1 ROC       0.0265
     86 H37        20.4377   28.2673   19.7533 H           1 ROC       0.0270
     87 H38        20.5762   26.5890   20.2772 H           1 ROC       0.0270
     88 H39        21.8597   27.8593   17.8028 H           1 ROC       0.0355
     89 H40        19.4477   27.3884   17.5296 H           1 ROC       0.0818
     90 H41        20.4571   26.4605   16.4274 H           1 ROC       0.0818
     91 H42        20.2343   23.8541   20.4892 H           1 ROC       0.1859
     92 H43        19.6829   21.7710   23.2036 H           1 ROC       0.0254
     93 H44        19.0200   23.2995   22.5816 H           1 ROC       0.0254
     94 H45        20.7657   23.0225   22.5858 H           1 ROC       0.0254
     95 H46        20.6834   20.0691   21.6362 H           1 ROC       0.0254
     96 H47        21.8144   21.2944   21.0270 H           1 ROC       0.0254
     97 H48        20.8093   20.3703   19.9071 H           1 ROC       0.0254
     98 H49        18.1247   20.4804   21.4771 H           1 ROC       0.0254
     99 H50        18.2572   20.8421   19.7512 H           1 ROC       0.0254
    100 H51        17.5265   22.0241   20.8424 H           1 ROC       0.0254
@<TRIPOS>BOND
     1     2     1   2
     2     2     4   1
     3    13     2  am
     4     4     3  ar
     5     3    12  ar
     6     4     5  ar
     7     5     6  ar
     8     6     7  ar
     9     7     8  ar
    10    12     7  ar
    11     8     9  ar
    12    10     9  ar
    13    11    10  ar
    14    12    11  ar
    15    14    13   1
    16    15    14   1
    17    14    17   1
    18    15    16   2
    19    24    15  am
    20    17    18   1
    21    18    19   2
    22    18    20  am
    23    21    22   1
    24    23    21   1
    25    21    33   1
    26    23    24   1
    27    23    25   1
    28    25    26   1
    29    26    27  ar
    30    26    28  ar
    31    27    29  ar
    32    28    30  ar
    33    29    31  ar
    34    30    31  ar
    35    33    32   1
    36    32    34   1
    37    32    44   1
    38    34    35   1
    39    34    37   1
    40    35    36   2
    41    35    45  am
    42    37    38   1
    43    38    39   1
    44    38    43   1
    45    39    40   1
    46    40    41   1
    47    41    42   1
    48    42    43   1
    49    43    44   1
    50    45    46   1
    51    46    47   1
    52    46    48   1
    53    46    49   1
    54     5    50   1
    55     6    51   1
    56     8    52   1
    57     9    53   1
    58    10    54   1
    59    11    55   1
    60    13    56   1
    61    14    57   1
    62    17    58   1
    63    17    59   1
    64    20    60   1
    65    20    61   1
    66    21    62   1
    67    22    63   1
    68    23    64   1
    69    24    65   1
    70    25    66   1
    71    25    67   1
    72    27    68   1
    73    28    69   1
    74    29    70   1
    75    30    71   1
    76    31    72   1
    77    32    73   1
    78    33    74   1
    79    33    75   1
    80    34    76   1
    81    37    77   1
    82    37    78   1
    83    38    79   1
    84    39    80   1
    85    39    81   1
    86    40    82   1
    87    40    83   1
    88    41    84   1
    89    41    85   1
    90    42    86   1
    91    42    87   1
    92    43    88   1
    93    44    89   1
    94    44    90   1
    95    45    91   1
    96    47    92   1
    97    47    93   1
    98    47    94   1
    99    48    95   1
   100    48    96   1
   101    48    97   1
   102    49    98   1
   103    49    99   1
   104    49   100   1
@<TRIPOS>SUBSTRUCTURE
     1  ROC      2

