@<TRIPOS>MOLECULE
3cyx_ligand_010
   100   104
SMALL
GAST_HUCK
****
This file was generated by PARSER (from files_GN.cpp)

@<TRIPOS>ATOM
      1 O1         22.8211   27.8100   19.5381 O.2         1 ROC      -0.3762
      2 C1         23.1067   27.2394   20.5857 C.2         1 ROC       0.2293
      3 N1         24.8720   26.7320   22.1157 N.ar        1 ROC      -0.2737
      4 C2         24.4421   26.9129   20.8328 C.ar        1 ROC       0.1219
      5 C3         25.4026   26.8129   19.7956 C.ar        1 ROC      -0.0136
      6 C4         26.7484   26.5388   20.0950 C.ar        1 ROC      -0.0314
      7 C5         27.1551   26.3828   21.4374 C.ar        1 ROC       0.0097
      8 C6         28.5024   26.1546   21.7901 C.ar        1 ROC      -0.0444
      9 C7         28.8627   26.0287   23.1468 C.ar        1 ROC      -0.0546
     10 C8         27.8818   26.1192   24.1522 C.ar        1 ROC      -0.0545
     11 C9R        26.5355   26.3387   23.8080 C.ar        1 ROC      -0.0370
     12 C10        26.1650   26.4793   22.4541 C.ar        1 ROC       0.0527
     13 N2         22.1397   26.9269   21.4491 N.am        1 ROC      -0.2600
     14 C11        20.7177   27.2016   21.3548 C.3         1 ROC       0.1473
     15 C12        20.1696   26.7997   20.0566 C.2         1 ROC       0.2045
     16 O2         20.3360   27.5233   19.0870 O.2         1 ROC      -0.3943
     17 C13        20.3878   28.6521   21.8498 C.3         1 ROC       0.0773
     18 C14        19.1763   29.2934   21.3536 C.2         1 ROC       0.1780
     19 O3         19.0735   29.5781   20.1702 O.2         1 ROC      -0.3970
     20 N3         18.2321   29.7491   22.1485 N.am        1 ROC      -0.3007
     21 C15        17.4481   24.7169   18.9274 C.3         1 ROC       0.1194
     22 O4         17.1840   23.3699   19.2959 O.3         1 ROC      -0.3840
     23 C16        18.9881   25.0178   18.7328 C.3         1 ROC       0.0823
     24 N4         19.5311   25.6367   19.9270 N.am        1 ROC      -0.2772
     25 C17        19.9191   23.8137   18.3360 C.3         1 ROC       0.0066
     26 C18        20.5319   23.0487   19.4640 C.ar        1 ROC      -0.0408
     27 C19        21.7877   23.4407   19.9933 C.ar        1 ROC      -0.0603
     28 C20        19.8694   21.9446   20.0529 C.ar        1 ROC      -0.0603
     29 C21        22.3399   22.7806   21.1047 C.ar        1 ROC      -0.0686
     30 C22        20.4150   21.2899   21.1704 C.ar        1 ROC      -0.0686
     31 C23        21.6451   21.7155   21.7018 C.ar        1 ROC      -0.0687
     32 N5         16.0809   24.4607   16.5801 N.4         1 ROC       0.2562
     33 C24        16.4600   25.2423   17.8178 C.3         1 ROC      -0.0008
     34 C25        17.1674   24.2286   15.5577 C.3         1 ROC       0.0688
     35 C26        17.8401   25.4544   15.1097 C.2         1 ROC       0.2251
     36 O5         17.1535   26.3036   14.5587 O.2         1 ROC      -0.3909
     37 C27        16.6157   23.5009   14.2841 C.3         1 ROC       0.0113
     38 C28        15.8097   22.2115   14.6184 C.3         1 ROC      -0.0261
     39 C29        15.2324   21.4913   13.3622 C.3         1 ROC      -0.0494
     40 C30        14.0161   22.2206   12.7296 C.3         1 ROC      -0.0528
     41 C31        12.9154   22.5256   13.7783 C.3         1 ROC      -0.0526
     42 C32        13.4742   23.2762   15.0152 C.3         1 ROC      -0.0451
     43 C33        14.6788   22.5118   15.6502 C.3         1 ROC       0.0024
     44 C34        15.2811   23.2252   16.8942 C.3         1 ROC      -0.0266
     45 N6         19.1621   25.5734   15.2075 N.am        1 ROC      -0.2771
     46 C35        20.0819   26.5798   14.7128 C.3         1 ROC       0.0448
     47 C36        20.9544   25.8616   13.6423 C.3         1 ROC      -0.0396
     48 C37        20.9911   27.0145   15.8988 C.3         1 ROC      -0.0396
     49 C38        19.4614   27.8660   14.0752 C.3         1 ROC      -0.0396
     50 H1         25.1313   26.9265   18.8138 H           1 ROC       0.0729
     51 H2         27.4263   26.4676   19.3303 H           1 ROC       0.0774
     52 H3         29.2304   26.0939   21.0725 H           1 ROC       0.0657
     53 H4         29.8421   25.8794   23.4034 H           1 ROC       0.0652
     54 H5         28.1504   26.0360   25.1362 H           1 ROC       0.0657
     55 H6         25.8292   26.4117   24.5430 H           1 ROC       0.0653
     56 H7         22.4182   26.4242   22.2360 H           1 ROC       0.1882
     57 H8         20.2653   26.5425   22.1026 H           1 ROC       0.0826
     58 H9         21.2161   29.3094   21.5954 H           1 ROC       0.0551
     59 H10        20.3458   28.6311   22.9451 H           1 ROC       0.0551
     60 H11        17.4941   30.2679   21.7782 H           1 ROC       0.1814
     61 H12        18.2683   29.5816   23.1034 H           1 ROC       0.1814
     62 H13        17.1394   25.2617   19.8275 H           1 ROC       0.0672
     63 H14        17.4538   22.8278   18.5183 H           1 ROC       0.2101
     64 H15        19.0574   25.7321   17.9103 H           1 ROC       0.0606
     65 H16        19.4444   25.1081   20.7386 H           1 ROC       0.1857
     66 H17        20.7348   24.2086   17.7204 H           1 ROC       0.0449
     67 H18        19.3834   23.1230   17.6862 H           1 ROC       0.0449
     68 H19        22.2996   24.2253   19.5828 H           1 ROC       0.0557
     69 H20        18.9786   21.6147   19.6816 H           1 ROC       0.0557
     70 H21        23.2391   23.0806   21.4865 H           1 ROC       0.0599
     71 H22        19.9134   20.5102   21.6032 H           1 ROC       0.0599
     72 H23        22.0316   21.2528   22.5250 H           1 ROC       0.0559
     73 H24        15.4137   25.0793   16.1077 H           1 ROC       0.2057
     74 H25        16.8155   26.2261   17.4994 H           1 ROC       0.0841
     75 H26        15.5142   25.4725   18.3250 H           1 ROC       0.0841
     76 H27        17.9002   23.5530   16.0055 H           1 ROC       0.1100
     77 H28        17.4566   23.2295   13.6378 H           1 ROC       0.0348
     78 H29        15.9801   24.1853   13.7172 H           1 ROC       0.0348
     79 H30        16.5123   21.5129   15.0839 H           1 ROC       0.0309
     80 H31        14.9133   20.4863   13.6548 H           1 ROC       0.0268
     81 H32        16.0153   21.3725   12.6096 H           1 ROC       0.0268
     82 H33        13.5922   21.5940   11.9381 H           1 ROC       0.0265
     83 H34        14.3463   23.1507   12.2647 H           1 ROC       0.0265
     84 H35        12.4620   21.5840   14.1044 H           1 ROC       0.0265
     85 H36        12.1290   23.1250   13.3154 H           1 ROC       0.0265
     86 H37        12.6753   23.3759   15.7543 H           1 ROC       0.0270
     87 H38        13.7785   24.2805   14.7213 H           1 ROC       0.0270
     88 H39        14.2869   21.5500   16.0028 H           1 ROC       0.0355
     89 H40        14.4572   23.4731   17.5719 H           1 ROC       0.0818
     90 H41        15.9087   22.4930   17.3992 H           1 ROC       0.0818
     91 H42        19.5982   24.8276   15.6489 H           1 ROC       0.1859
     92 H43        21.7307   26.5306   13.2619 H           1 ROC       0.0254
     93 H44        20.3331   25.5377   12.8038 H           1 ROC       0.0254
     94 H45        21.4443   24.9796   14.0646 H           1 ROC       0.0254
     95 H46        21.7856   27.6857   15.5612 H           1 ROC       0.0254
     96 H47        21.4577   26.1510   16.3777 H           1 ROC       0.0254
     97 H48        20.3972   27.5432   16.6412 H           1 ROC       0.0254
     98 H49        20.2423   28.5572   13.7532 H           1 ROC       0.0254
     99 H50        18.8325   28.3893   14.7976 H           1 ROC       0.0254
    100 H51        18.8524   27.6131   13.2047 H           1 ROC       0.0254
@<TRIPOS>BOND
     1     2     1   2
     2     2     4   1
     3    13     2  am
     4     4     3  ar
     5     3    12  ar
     6     4     5  ar
     7     5     6  ar
     8     6     7  ar
     9     7     8  ar
    10    12     7  ar
    11     8     9  ar
    12    10     9  ar
    13    11    10  ar
    14    12    11  ar
    15    14    13   1
    16    15    14   1
    17    14    17   1
    18    15    16   2
    19    24    15  am
    20    17    18   1
    21    18    19   2
    22    18    20  am
    23    21    22   1
    24    23    21   1
    25    21    33   1
    26    23    24   1
    27    23    25   1
    28    25    26   1
    29    26    27  ar
    30    26    28  ar
    31    27    29  ar
    32    28    30  ar
    33    29    31  ar
    34    30    31  ar
    35    33    32   1
    36    32    34   1
    37    32    44   1
    38    34    35   1
    39    34    37   1
    40    35    36   2
    41    35    45  am
    42    37    38   1
    43    38    39   1
    44    38    43   1
    45    39    40   1
    46    40    41   1
    47    41    42   1
    48    42    43   1
    49    43    44   1
    50    45    46   1
    51    46    47   1
    52    46    48   1
    53    46    49   1
    54     5    50   1
    55     6    51   1
    56     8    52   1
    57     9    53   1
    58    10    54   1
    59    11    55   1
    60    13    56   1
    61    14    57   1
    62    17    58   1
    63    17    59   1
    64    20    60   1
    65    20    61   1
    66    21    62   1
    67    22    63   1
    68    23    64   1
    69    24    65   1
    70    25    66   1
    71    25    67   1
    72    27    68   1
    73    28    69   1
    74    29    70   1
    75    30    71   1
    76    31    72   1
    77    32    73   1
    78    33    74   1
    79    33    75   1
    80    34    76   1
    81    37    77   1
    82    37    78   1
    83    38    79   1
    84    39    80   1
    85    39    81   1
    86    40    82   1
    87    40    83   1
    88    41    84   1
    89    41    85   1
    90    42    86   1
    91    42    87   1
    92    43    88   1
    93    44    89   1
    94    44    90   1
    95    45    91   1
    96    47    92   1
    97    47    93   1
    98    47    94   1
    99    48    95   1
   100    48    96   1
   101    48    97   1
   102    49    98   1
   103    49    99   1
   104    49   100   1
@<TRIPOS>SUBSTRUCTURE
     1  ROC      2

