@<TRIPOS>MOLECULE
3cyx_ligand_029
   100   104
SMALL
GAST_HUCK
****
This file was generated by PARSER (from files_GN.cpp)

@<TRIPOS>ATOM
      1 O1         17.4643   23.5643   16.5138 O.2         1 ROC      -0.3762
      2 C1         17.6849   23.0681   17.6194 C.2         1 ROC       0.2293
      3 N1         19.2061   22.5135   19.3458 N.ar        1 ROC      -0.2737
      4 C2         18.9348   23.2098   18.2078 C.ar        1 ROC       0.1219
      5 C3         19.9380   24.0743   17.6928 C.ar        1 ROC      -0.0136
      6 C4         21.1710   24.1965   18.3592 C.ar        1 ROC      -0.0314
      7 C5         21.4161   23.4450   19.5283 C.ar        1 ROC       0.0097
      8 C6         22.6455   23.5192   20.2248 C.ar        1 ROC      -0.0444
      9 C7         22.8407   22.7537   21.3891 C.ar        1 ROC      -0.0546
     10 C8         21.8224   21.9032   21.8561 C.ar        1 ROC      -0.0545
     11 C9R        20.5921   21.8281   21.1738 C.ar        1 ROC      -0.0370
     12 C10        20.3864   22.5938   20.0108 C.ar        1 ROC       0.0527
     13 N2         16.6797   22.4603   18.2468 N.am        1 ROC      -0.2600
     14 C11        15.3054   22.3386   17.8100 C.3         1 ROC       0.1473
     15 C12        15.1978   21.6356   16.5296 C.2         1 ROC       0.2045
     16 O2         15.8316   20.5856   16.4367 O.2         1 ROC      -0.3943
     17 C13        14.4777   23.6546   18.0208 C.3         1 ROC       0.0773
     18 C14        15.1697   24.9097   17.7695 C.2         1 ROC       0.1780
     19 O3         15.8037   25.1144   16.7401 O.2         1 ROC      -0.3970
     20 N3         15.1315   25.8811   18.6569 N.am        1 ROC      -0.3007
     21 C15        13.5966   19.8940   14.4877 C.3         1 ROC       0.1194
     22 O4         13.4576   19.2680   13.2121 O.3         1 ROC      -0.3840
     23 C16        14.1640   21.3461   14.2775 C.3         1 ROC       0.0823
     24 N4         14.4113   22.0288   15.5231 N.am        1 ROC      -0.2772
     25 C17        15.4187   21.4047   13.3472 C.3         1 ROC       0.0066
     26 C18        15.9071   22.7812   13.0516 C.ar        1 ROC      -0.0408
     27 C19        15.3901   23.5127   11.9546 C.ar        1 ROC      -0.0603
     28 C20        16.9352   23.3679   13.8227 C.ar        1 ROC      -0.0603
     29 C21        15.8773   24.7979   11.6527 C.ar        1 ROC      -0.0686
     30 C22        17.4319   24.6517   13.5162 C.ar        1 ROC      -0.0686
     31 C23        16.8946   25.3696   12.4345 C.ar        1 ROC      -0.0687
     32 N5         11.6739   18.4878   15.5017 N.4         1 ROC       0.2562
     33 C24        12.2560   19.8706   15.2874 C.3         1 ROC      -0.0008
     34 C25        10.8966   18.3128   16.7893 C.3         1 ROC       0.0688
     35 C26        11.6577   18.6077   18.0078 C.2         1 ROC       0.2251
     36 O5         11.1553   19.3403   18.8515 O.2         1 ROC      -0.3909
     37 C27        10.3405   16.8556   16.9576 C.3         1 ROC       0.0113
     38 C28         9.5580   16.3524   15.7104 C.3         1 ROC      -0.0261
     39 C29         9.1058   14.8667   15.8405 C.3         1 ROC      -0.0494
     40 C30        10.2662   13.8435   15.6729 C.3         1 ROC      -0.0528
     41 C31        11.0745   14.0927   14.3708 C.3         1 ROC      -0.0526
     42 C32        11.5575   15.5608   14.2583 C.3         1 ROC      -0.0451
     43 C33        10.3788   16.5711   14.4043 C.3         1 ROC       0.0024
     44 C34        10.8541   18.0425   14.3157 C.3         1 ROC      -0.0266
     45 N6         12.7891   17.9493   18.2404 N.am        1 ROC      -0.2771
     46 C35        13.5035   17.7750   19.4807 C.3         1 ROC       0.0448
     47 C36        14.7734   16.9363   19.1302 C.3         1 ROC      -0.0396
     48 C37        12.6316   16.9623   20.4889 C.3         1 ROC      -0.0396
     49 C38        13.9524   19.1285   20.1035 C.3         1 ROC      -0.0396
     50 H1         19.7830   24.6240   16.8442 H           1 ROC       0.0729
     51 H2         21.8881   24.8317   17.9874 H           1 ROC       0.0774
     52 H3         23.4014   24.1334   19.8935 H           1 ROC       0.0657
     53 H4         23.7265   22.8106   21.8952 H           1 ROC       0.0652
     54 H5         21.9668   21.3426   22.6961 H           1 ROC       0.0657
     55 H6         19.8540   21.2077   21.5227 H           1 ROC       0.0653
     56 H7         16.8931   22.0546   19.1031 H           1 ROC       0.1882
     57 H8         14.8640   21.6374   18.5189 H           1 ROC       0.0826
     58 H9         14.1390   23.6599   19.0620 H           1 ROC       0.0551
     59 H10        13.5583   23.6414   17.4293 H           1 ROC       0.0551
     60 H11        15.5758   26.7182   18.4662 H           1 ROC       0.1814
     61 H12        14.6278   25.7637   19.4753 H           1 ROC       0.1814
     62 H13        14.3254   19.2921   15.0354 H           1 ROC       0.0672
     63 H14        13.5201   18.3027   13.3940 H           1 ROC       0.2101
     64 H15        13.3737   21.9083   13.7741 H           1 ROC       0.0606
     65 H16        13.9328   22.8655   15.6424 H           1 ROC       0.1857
     66 H17        15.2028   20.9340   12.3837 H           1 ROC       0.0449
     67 H18        16.2123   20.8060   13.8001 H           1 ROC       0.0449
     68 H19        14.6672   23.1012   11.3543 H           1 ROC       0.0557
     69 H20        17.3474   22.8573   14.5950 H           1 ROC       0.0557
     70 H21        15.4870   25.3264   10.8651 H           1 ROC       0.0599
     71 H22        18.1873   25.0555   14.0745 H           1 ROC       0.0599
     72 H23        17.2533   26.3043   12.2094 H           1 ROC       0.0559
     73 H24        12.4782   17.8567   15.5747 H           1 ROC       0.2057
     74 H25        11.5246   20.5210   14.7989 H           1 ROC       0.0841
     75 H26        12.4694   20.3458   16.2476 H           1 ROC       0.0841
     76 H27        10.0257   18.9837   16.7463 H           1 ROC       0.1100
     77 H28         9.6719   16.8220   17.8238 H           1 ROC       0.0348
     78 H29        11.1675   16.1704   17.1549 H           1 ROC       0.0348
     79 H30         8.6492   16.9569   15.6462 H           1 ROC       0.0309
     80 H31         8.3559   14.6609   15.0685 H           1 ROC       0.0268
     81 H32         8.6245   14.7037   16.8101 H           1 ROC       0.0268
     82 H33         9.8512   12.8309   15.6475 H           1 ROC       0.0265
     83 H34        10.9392   13.9002   16.5322 H           1 ROC       0.0265
     84 H35        10.4467   13.8513   13.5084 H           1 ROC       0.0265
     85 H36        11.9398   13.4256   14.3559 H           1 ROC       0.0265
     86 H37        12.0341   15.6929   13.2827 H           1 ROC       0.0270
     87 H38        12.3173   15.7435   15.0235 H           1 ROC       0.0270
     88 H39         9.7032   16.4011   13.5599 H           1 ROC       0.0355
     89 H40        11.4079   18.1416   13.3832 H           1 ROC       0.0818
     90 H41         9.9738   18.6905   14.2211 H           1 ROC       0.0818
     91 H42        13.1290   17.4420   17.4887 H           1 ROC       0.1859
     92 H43        15.3627   16.7192   20.0234 H           1 ROC       0.0254
     93 H44        15.4128   17.4743   18.4268 H           1 ROC       0.0254
     94 H45        14.4976   15.9852   18.6686 H           1 ROC       0.0254
     95 H46        13.2035   16.7081   21.3855 H           1 ROC       0.0254
     96 H47        12.2812   16.0308   20.0340 H           1 ROC       0.0254
     97 H48        11.7551   17.5345   20.8020 H           1 ROC       0.0254
     98 H49        14.5549   18.9626   20.9996 H           1 ROC       0.0254
     99 H50        13.0950   19.7415   20.3830 H           1 ROC       0.0254
    100 H51        14.5531   19.6812   19.3837 H           1 ROC       0.0254
@<TRIPOS>BOND
     1     2     1   2
     2     2     4   1
     3    13     2  am
     4     4     3  ar
     5     3    12  ar
     6     4     5  ar
     7     5     6  ar
     8     6     7  ar
     9     7     8  ar
    10    12     7  ar
    11     8     9  ar
    12    10     9  ar
    13    11    10  ar
    14    12    11  ar
    15    14    13   1
    16    15    14   1
    17    14    17   1
    18    15    16   2
    19    24    15  am
    20    17    18   1
    21    18    19   2
    22    18    20  am
    23    21    22   1
    24    23    21   1
    25    21    33   1
    26    23    24   1
    27    23    25   1
    28    25    26   1
    29    26    27  ar
    30    26    28  ar
    31    27    29  ar
    32    28    30  ar
    33    29    31  ar
    34    30    31  ar
    35    33    32   1
    36    32    34   1
    37    32    44   1
    38    34    35   1
    39    34    37   1
    40    35    36   2
    41    35    45  am
    42    37    38   1
    43    38    39   1
    44    38    43   1
    45    39    40   1
    46    40    41   1
    47    41    42   1
    48    42    43   1
    49    43    44   1
    50    45    46   1
    51    46    47   1
    52    46    48   1
    53    46    49   1
    54     5    50   1
    55     6    51   1
    56     8    52   1
    57     9    53   1
    58    10    54   1
    59    11    55   1
    60    13    56   1
    61    14    57   1
    62    17    58   1
    63    17    59   1
    64    20    60   1
    65    20    61   1
    66    21    62   1
    67    22    63   1
    68    23    64   1
    69    24    65   1
    70    25    66   1
    71    25    67   1
    72    27    68   1
    73    28    69   1
    74    29    70   1
    75    30    71   1
    76    31    72   1
    77    32    73   1
    78    33    74   1
    79    33    75   1
    80    34    76   1
    81    37    77   1
    82    37    78   1
    83    38    79   1
    84    39    80   1
    85    39    81   1
    86    40    82   1
    87    40    83   1
    88    41    84   1
    89    41    85   1
    90    42    86   1
    91    42    87   1
    92    43    88   1
    93    44    89   1
    94    44    90   1
    95    45    91   1
    96    47    92   1
    97    47    93   1
    98    47    94   1
    99    48    95   1
   100    48    96   1
   101    48    97   1
   102    49    98   1
   103    49    99   1
   104    49   100   1
@<TRIPOS>SUBSTRUCTURE
     1  ROC      2

