@<TRIPOS>MOLECULE
3cyx_ligand_058
   100   104
SMALL
GAST_HUCK
****
This file was generated by PARSER (from files_GN.cpp)

@<TRIPOS>ATOM
      1 O1         23.0999   26.1846   22.9951 O.2         1 ROC      -0.3762
      2 C1         23.2212   25.7835   21.8417 C.2         1 ROC       0.2293
      3 N1         24.2851   24.3955   20.2413 N.ar        1 ROC      -0.2737
      4 C2         24.2488   24.9133   21.5017 C.ar        1 ROC       0.1219
      5 C3         25.2233   24.4493   22.4227 C.ar        1 ROC      -0.0136
      6 C4         26.1625   23.4790   22.0235 C.ar        1 ROC      -0.0314
      7 C5         26.1315   22.9478   20.7157 C.ar        1 ROC       0.0097
      8 C6         27.0153   21.9370   20.2780 C.ar        1 ROC      -0.0444
      9 C7         26.9071   21.4187   18.9699 C.ar        1 ROC      -0.0546
     10 C8         25.9447   21.9306   18.0827 C.ar        1 ROC      -0.0545
     11 C9R        25.0786   22.9594   18.4981 C.ar        1 ROC      -0.0370
     12 C10        25.1634   23.4577   19.8118 C.ar        1 ROC       0.0527
     13 N2         22.2882   26.0743   20.9363 N.am        1 ROC      -0.2600
     14 C11        21.0241   26.7234   21.1264 C.3         1 ROC       0.1473
     15 C12        20.2298   26.3962   19.9463 C.2         1 ROC       0.2045
     16 O2         20.4361   27.0105   18.9054 O.2         1 ROC      -0.3943
     17 C13        21.2039   28.2487   21.4036 C.3         1 ROC       0.0773
     18 C14        19.9983   29.0521   21.2858 C.2         1 ROC       0.1780
     19 O3         19.5177   29.2836   20.1862 O.2         1 ROC      -0.3970
     20 N3         19.4308   29.6137   22.3304 N.am        1 ROC      -0.3007
     21 C15        17.1913   24.6460   19.1784 C.3         1 ROC       0.1194
     22 O4         16.7877   23.3734   19.6704 O.3         1 ROC      -0.3840
     23 C16        18.7415   24.6936   18.8751 C.3         1 ROC       0.0823
     24 N4         19.4355   25.3264   19.9720 N.am        1 ROC      -0.2772
     25 C17        19.4513   23.3259   18.5565 C.3         1 ROC       0.0066
     26 C18        20.0863   22.6013   19.6930 C.ar        1 ROC      -0.0408
     27 C19        21.4125   22.9138   20.0769 C.ar        1 ROC      -0.0603
     28 C20        19.4131   21.5632   20.3851 C.ar        1 ROC      -0.0603
     29 C21        22.0313   22.2575   21.1521 C.ar        1 ROC      -0.0686
     30 C22        20.0319   20.8995   21.4580 C.ar        1 ROC      -0.0686
     31 C23        21.3299   21.2618   21.8580 C.ar        1 ROC      -0.0687
     32 N5         15.5597   24.2353   17.0529 N.4         1 ROC       0.2562
     33 C24        16.2216   25.1677   18.0479 C.3         1 ROC      -0.0008
     34 C25        16.4815   23.3190   16.2816 C.3         1 ROC       0.0688
     35 C26        17.5625   24.0003   15.5643 C.2         1 ROC       0.2251
     36 O5         18.7176   23.6771   15.8215 O.2         1 ROC      -0.3909
     37 C27        15.7384   22.4128   15.2483 C.3         1 ROC       0.0113
     38 C28        14.5571   21.6428   15.9090 C.3         1 ROC      -0.0261
     39 C29        13.8024   20.7100   14.9101 C.3         1 ROC      -0.0494
     40 C30        12.9290   21.4891   13.8900 C.3         1 ROC      -0.0528
     41 C31        11.9796   22.4912   14.5923 C.3         1 ROC      -0.0526
     42 C32        12.7239   23.4320   15.5805 C.3         1 ROC      -0.0451
     43 C33        13.5776   22.6319   16.6130 C.3         1 ROC       0.0024
     44 C34        14.3598   23.5282   17.6235 C.3         1 ROC      -0.0266
     45 N6         17.2724   24.8684   14.5991 N.am        1 ROC      -0.2771
     46 C35        18.1166   25.5565   13.6388 C.3         1 ROC       0.0448
     47 C36        17.4775   25.3137   12.2370 C.3         1 ROC      -0.0396
     48 C37        19.6229   25.1461   13.5763 C.3         1 ROC      -0.0396
     49 C38        18.0370   27.0736   13.9850 C.3         1 ROC      -0.0396
     50 H1         25.2387   24.7871   23.3878 H           1 ROC       0.0729
     51 H2         26.8570   23.1480   22.6987 H           1 ROC       0.0774
     52 H3         27.7312   21.5647   20.9068 H           1 ROC       0.0657
     53 H4         27.5341   20.6698   18.6669 H           1 ROC       0.0652
     54 H5         25.8752   21.5572   17.1320 H           1 ROC       0.0657
     55 H6         24.3850   23.3315   17.8456 H           1 ROC       0.0653
     56 H7         22.4492   25.7130   20.0496 H           1 ROC       0.1882
     57 H8         20.5481   26.2827   22.0107 H           1 ROC       0.0826
     58 H9         21.9645   28.6490   20.7275 H           1 ROC       0.0551
     59 H10        21.5967   28.3527   22.4170 H           1 ROC       0.0551
     60 H11        18.6534   30.1822   22.2152 H           1 ROC       0.1814
     61 H12        19.7857   29.4620   23.2193 H           1 ROC       0.1814
     62 H13        17.0122   25.3141   20.0273 H           1 ROC       0.0672
     63 H14        16.7659   22.7868   18.8793 H           1 ROC       0.2101
     64 H15        18.8747   25.3081   17.9803 H           1 ROC       0.0606
     65 H16        19.3718   24.8719   20.8282 H           1 ROC       0.1857
     66 H17        20.2282   23.5218   17.8092 H           1 ROC       0.0449
     67 H18        18.7555   22.6449   18.0731 H           1 ROC       0.0449
     68 H19        21.9369   23.6301   19.5689 H           1 ROC       0.0557
     69 H20        18.4720   21.2749   20.1106 H           1 ROC       0.0557
     70 H21        22.9852   22.5107   21.4236 H           1 ROC       0.0599
     71 H22        19.5343   20.1573   21.9570 H           1 ROC       0.0599
     72 H23        21.7745   20.7844   22.6424 H           1 ROC       0.0559
     73 H24        15.1577   24.8735   16.3618 H           1 ROC       0.2057
     74 H25        16.7383   25.9422   17.4777 H           1 ROC       0.0841
     75 H26        15.4150   25.7193   18.5445 H           1 ROC       0.0841
     76 H27        16.9091   22.6264   17.0194 H           1 ROC       0.1100
     77 H28        16.4385   21.6755   14.8288 H           1 ROC       0.0348
     78 H29        15.3676   23.0262   14.4219 H           1 ROC       0.0348
     79 H30        14.9855   20.9883   16.6781 H           1 ROC       0.0309
     80 H31        13.1531   20.0370   15.4782 H           1 ROC       0.0268
     81 H32        14.5224   20.0860   14.3732 H           1 ROC       0.0268
     82 H33        12.3372   20.7742   13.3105 H           1 ROC       0.0265
     83 H34        13.5710   22.0253   13.1881 H           1 ROC       0.0265
     84 H35        11.2125   21.9338   15.1359 H           1 ROC       0.0265
     85 H36        11.4770   23.0884   13.8288 H           1 ROC       0.0265
     86 H37        11.9849   24.0328   16.1153 H           1 ROC       0.0270
     87 H38        13.3540   24.1221   15.0155 H           1 ROC       0.0270
     88 H39        12.8725   22.0353   17.2034 H           1 ROC       0.0355
     89 H40        13.6589   24.2679   18.0217 H           1 ROC       0.0818
     90 H41        14.6521   22.8907   18.4618 H           1 ROC       0.0818
     91 H42        16.3233   25.0560   14.4906 H           1 ROC       0.1859
     92 H43        18.0249   25.8541   11.4639 H           1 ROC       0.0254
     93 H44        16.4404   25.6524   12.2168 H           1 ROC       0.0254
     94 H45        17.4964   24.2507   11.9901 H           1 ROC       0.0254
     95 H46        20.1522   25.7088   12.8025 H           1 ROC       0.0254
     96 H47        19.7258   24.0865   13.3420 H           1 ROC       0.0254
     97 H48        20.1222   25.3408   14.5273 H           1 ROC       0.0254
     98 H49        18.5861   27.6725   13.2536 H           1 ROC       0.0254
     99 H50        18.4663   27.2604   14.9731 H           1 ROC       0.0254
    100 H51        17.0003   27.4155   13.9933 H           1 ROC       0.0254
@<TRIPOS>BOND
     1     2     1   2
     2     2     4   1
     3    13     2  am
     4     4     3  ar
     5     3    12  ar
     6     4     5  ar
     7     5     6  ar
     8     6     7  ar
     9     7     8  ar
    10    12     7  ar
    11     8     9  ar
    12    10     9  ar
    13    11    10  ar
    14    12    11  ar
    15    14    13   1
    16    15    14   1
    17    14    17   1
    18    15    16   2
    19    24    15  am
    20    17    18   1
    21    18    19   2
    22    18    20  am
    23    21    22   1
    24    23    21   1
    25    21    33   1
    26    23    24   1
    27    23    25   1
    28    25    26   1
    29    26    27  ar
    30    26    28  ar
    31    27    29  ar
    32    28    30  ar
    33    29    31  ar
    34    30    31  ar
    35    33    32   1
    36    32    34   1
    37    32    44   1
    38    34    35   1
    39    34    37   1
    40    35    36   2
    41    35    45  am
    42    37    38   1
    43    38    39   1
    44    38    43   1
    45    39    40   1
    46    40    41   1
    47    41    42   1
    48    42    43   1
    49    43    44   1
    50    45    46   1
    51    46    47   1
    52    46    48   1
    53    46    49   1
    54     5    50   1
    55     6    51   1
    56     8    52   1
    57     9    53   1
    58    10    54   1
    59    11    55   1
    60    13    56   1
    61    14    57   1
    62    17    58   1
    63    17    59   1
    64    20    60   1
    65    20    61   1
    66    21    62   1
    67    22    63   1
    68    23    64   1
    69    24    65   1
    70    25    66   1
    71    25    67   1
    72    27    68   1
    73    28    69   1
    74    29    70   1
    75    30    71   1
    76    31    72   1
    77    32    73   1
    78    33    74   1
    79    33    75   1
    80    34    76   1
    81    37    77   1
    82    37    78   1
    83    38    79   1
    84    39    80   1
    85    39    81   1
    86    40    82   1
    87    40    83   1
    88    41    84   1
    89    41    85   1
    90    42    86   1
    91    42    87   1
    92    43    88   1
    93    44    89   1
    94    44    90   1
    95    45    91   1
    96    47    92   1
    97    47    93   1
    98    47    94   1
    99    48    95   1
   100    48    96   1
   101    48    97   1
   102    49    98   1
   103    49    99   1
   104    49   100   1
@<TRIPOS>SUBSTRUCTURE
     1  ROC      2

