@<TRIPOS>MOLECULE
3cyx_ligand_038
   100   104
SMALL
GAST_HUCK
****
This file was generated by PARSER (from files_GN.cpp)

@<TRIPOS>ATOM
      1 O1         20.8654   22.2434   20.3492 O.2         1 ROC      -0.3762
      2 C1         20.7551   23.3355   19.7743 C.2         1 ROC       0.2293
      3 N1         21.8205   25.2121   18.7615 N.ar        1 ROC      -0.2737
      4 C2         21.8763   23.9132   19.1980 C.ar        1 ROC       0.1219
      5 C3         23.1015   23.2233   19.0423 C.ar        1 ROC      -0.0136
      6 C4         24.2071   23.8629   18.4558 C.ar        1 ROC      -0.0314
      7 C5         24.1067   25.2034   18.0333 C.ar        1 ROC       0.0097
      8 C6         25.2014   25.8853   17.4632 C.ar        1 ROC      -0.0444
      9 C7         25.0689   27.2291   17.0701 C.ar        1 ROC      -0.0546
     10 C8         23.8364   27.8936   17.2354 C.ar        1 ROC      -0.0545
     11 C9R        22.7375   27.2186   17.7951 C.ar        1 ROC      -0.0370
     12 C10        22.8654   25.8719   18.1998 C.ar        1 ROC       0.0527
     13 N2         19.5572   23.9042   19.6957 N.am        1 ROC      -0.2600
     14 C11        18.3156   23.4263   20.2678 C.3         1 ROC       0.1473
     15 C12        17.8031   22.2240   19.6072 C.2         1 ROC       0.2045
     16 O2         18.6036   21.4794   19.0288 O.2         1 ROC      -0.3943
     17 C13        17.3200   24.6351   20.4153 C.3         1 ROC       0.0773
     18 C14        16.8264   25.2136   19.1783 C.2         1 ROC       0.1780
     19 O3         17.6027   25.7310   18.3713 O.2         1 ROC      -0.3970
     20 N3         15.5415   25.2667   18.8767 N.am        1 ROC      -0.3007
     21 C15        15.3585   21.0968   17.6104 C.3         1 ROC       0.1194
     22 O4         14.2940   20.2350   17.1976 O.3         1 ROC      -0.3840
     23 C16        15.9042   20.7160   19.0324 C.3         1 ROC       0.0823
     24 N4         16.5124   21.8870   19.5985 N.am        1 ROC      -0.2772
     25 C17        14.8548   20.2048   20.0696 C.3         1 ROC       0.0066
     26 C18        14.1336   18.9557   19.6957 C.ar        1 ROC      -0.0408
     27 C19        14.8491   17.7995   19.2879 C.ar        1 ROC      -0.0603
     28 C20        12.7214   18.8927   19.7330 C.ar        1 ROC      -0.0603
     29 C21        14.1712   16.6355   18.8967 C.ar        1 ROC      -0.0686
     30 C22        12.0393   17.7171   19.3542 C.ar        1 ROC      -0.0686
     31 C23        12.7647   16.5914   18.9289 C.ar        1 ROC      -0.0687
     32 N5         16.8735   22.3811   15.8104 N.4         1 ROC       0.2562
     33 C24        16.4652   21.0921   16.4889 C.3         1 ROC      -0.0008
     34 C25        15.7651   23.2890   15.3089 C.3         1 ROC       0.0688
     35 C26        14.7349   22.6387   14.4843 C.2         1 ROC       0.2251
     36 O5         13.6260   23.1765   14.4417 O.2         1 ROC      -0.3909
     37 C27        16.3476   24.5047   14.5239 C.3         1 ROC       0.0113
     38 C28        17.3615   25.3096   15.3922 C.3         1 ROC      -0.0261
     39 C29        17.9306   26.5620   14.6584 C.3         1 ROC      -0.0494
     40 C30        18.9944   26.2295   13.5809 C.3         1 ROC      -0.0528
     41 C31        20.1226   25.3371   14.1569 C.3         1 ROC      -0.0526
     42 C32        19.5534   24.0647   14.8352 C.3         1 ROC      -0.0451
     43 C33        18.5007   24.3934   15.9359 C.3         1 ROC       0.0024
     44 C34        17.9087   23.1178   16.6102 C.3         1 ROC      -0.0266
     45 N6         14.9872   21.5459   13.7910 N.am        1 ROC      -0.2771
     46 C35        14.1203   20.7193   12.9746 C.3         1 ROC       0.0448
     47 C36        12.6638   20.5601   13.5269 C.3         1 ROC      -0.0396
     48 C37        14.7822   19.3068   12.9234 C.3         1 ROC      -0.0396
     49 C38        14.0937   21.3183   11.5443 C.3         1 ROC      -0.0396
     50 H1         23.2026   22.2480   19.3404 H           1 ROC       0.0729
     51 H2         25.0817   23.3468   18.3452 H           1 ROC       0.0774
     52 H3         26.1019   25.4169   17.3429 H           1 ROC       0.0657
     53 H4         25.8672   27.7246   16.6710 H           1 ROC       0.0652
     54 H5         23.7475   28.8732   16.9523 H           1 ROC       0.0657
     55 H6         21.8490   27.7129   17.9138 H           1 ROC       0.0653
     56 H7         19.5348   24.7708   19.2575 H           1 ROC       0.1882
     57 H8         18.5371   23.1294   21.2971 H           1 ROC       0.0826
     58 H9         17.8271   25.4268   20.9707 H           1 ROC       0.0551
     59 H10        16.4821   24.3170   21.0474 H           1 ROC       0.0551
     60 H11        15.2327   25.7514   18.0959 H           1 ROC       0.1814
     61 H12        14.8898   24.8820   19.4804 H           1 ROC       0.1814
     62 H13        14.9018   22.0812   17.6868 H           1 ROC       0.0672
     63 H14        14.7116   19.3701   16.9896 H           1 ROC       0.2101
     64 H15        16.6388   19.9116   18.9146 H           1 ROC       0.0606
     65 H16        15.9014   22.5164   20.0198 H           1 ROC       0.1857
     66 H17        14.1504   21.0165   20.2701 H           1 ROC       0.0449
     67 H18        15.3764   19.9999   21.0101 H           1 ROC       0.0449
     68 H19        15.8727   17.8025   19.2691 H           1 ROC       0.0557
     69 H20        12.1719   19.7028   20.0275 H           1 ROC       0.0557
     70 H21        14.7000   15.8182   18.5779 H           1 ROC       0.0599
     71 H22        11.0178   17.6877   19.3802 H           1 ROC       0.0599
     72 H23        12.2713   15.7393   18.6475 H           1 ROC       0.0559
     73 H24        17.3728   22.0838   14.9698 H           1 ROC       0.2057
     74 H25        16.1441   20.4151   15.7009 H           1 ROC       0.0841
     75 H26        17.3616   20.5965   16.8686 H           1 ROC       0.0841
     76 H27        15.2649   23.7113   16.1848 H           1 ROC       0.1100
     77 H28        15.5309   25.1771   14.2394 H           1 ROC       0.0348
     78 H29        16.8260   24.1518   13.6045 H           1 ROC       0.0348
     79 H30        16.8108   25.6889   16.2624 H           1 ROC       0.0309
     80 H31        18.3955   27.2158   15.4032 H           1 ROC       0.0268
     81 H32        17.1174   27.1269   14.1945 H           1 ROC       0.0268
     82 H33        19.4304   27.1643   13.2175 H           1 ROC       0.0265
     83 H34        18.5254   25.7246   12.7302 H           1 ROC       0.0265
     84 H35        20.7022   25.9139   14.8861 H           1 ROC       0.0265
     85 H36        20.7982   25.0457   13.3463 H           1 ROC       0.0265
     86 H37        20.3848   23.5105   15.2779 H           1 ROC       0.0270
     87 H38        19.0923   23.4407   14.0710 H           1 ROC       0.0270
     88 H39        19.0312   24.9454   16.7205 H           1 ROC       0.0355
     89 H40        18.7445   22.4472   16.8395 H           1 ROC       0.0818
     90 H41        17.4574   23.4028   17.5574 H           1 ROC       0.0818
     91 H42        15.9059   21.2332   13.8336 H           1 ROC       0.1859
     92 H43        12.1210   19.7841   12.9757 H           1 ROC       0.0254
     93 H44        12.0928   21.4849   13.4194 H           1 ROC       0.0254
     94 H45        12.6830   20.2838   14.5839 H           1 ROC       0.0254
     95 H46        14.2155   18.6338   12.2758 H           1 ROC       0.0254
     96 H47        14.8240   18.8647   13.9222 H           1 ROC       0.0254
     97 H48        15.8009   19.3690   12.5343 H           1 ROC       0.0254
     98 H49        13.4932   20.6859   10.8854 H           1 ROC       0.0254
     99 H50        15.1053   21.3849   11.1338 H           1 ROC       0.0254
    100 H51        13.6640   22.3236   11.5513 H           1 ROC       0.0254
@<TRIPOS>BOND
     1     2     1   2
     2     2     4   1
     3    13     2  am
     4     4     3  ar
     5     3    12  ar
     6     4     5  ar
     7     5     6  ar
     8     6     7  ar
     9     7     8  ar
    10    12     7  ar
    11     8     9  ar
    12    10     9  ar
    13    11    10  ar
    14    12    11  ar
    15    14    13   1
    16    15    14   1
    17    14    17   1
    18    15    16   2
    19    24    15  am
    20    17    18   1
    21    18    19   2
    22    18    20  am
    23    21    22   1
    24    23    21   1
    25    21    33   1
    26    23    24   1
    27    23    25   1
    28    25    26   1
    29    26    27  ar
    30    26    28  ar
    31    27    29  ar
    32    28    30  ar
    33    29    31  ar
    34    30    31  ar
    35    33    32   1
    36    32    34   1
    37    32    44   1
    38    34    35   1
    39    34    37   1
    40    35    36   2
    41    35    45  am
    42    37    38   1
    43    38    39   1
    44    38    43   1
    45    39    40   1
    46    40    41   1
    47    41    42   1
    48    42    43   1
    49    43    44   1
    50    45    46   1
    51    46    47   1
    52    46    48   1
    53    46    49   1
    54     5    50   1
    55     6    51   1
    56     8    52   1
    57     9    53   1
    58    10    54   1
    59    11    55   1
    60    13    56   1
    61    14    57   1
    62    17    58   1
    63    17    59   1
    64    20    60   1
    65    20    61   1
    66    21    62   1
    67    22    63   1
    68    23    64   1
    69    24    65   1
    70    25    66   1
    71    25    67   1
    72    27    68   1
    73    28    69   1
    74    29    70   1
    75    30    71   1
    76    31    72   1
    77    32    73   1
    78    33    74   1
    79    33    75   1
    80    34    76   1
    81    37    77   1
    82    37    78   1
    83    38    79   1
    84    39    80   1
    85    39    81   1
    86    40    82   1
    87    40    83   1
    88    41    84   1
    89    41    85   1
    90    42    86   1
    91    42    87   1
    92    43    88   1
    93    44    89   1
    94    44    90   1
    95    45    91   1
    96    47    92   1
    97    47    93   1
    98    47    94   1
    99    48    95   1
   100    48    96   1
   101    48    97   1
   102    49    98   1
   103    49    99   1
   104    49   100   1
@<TRIPOS>SUBSTRUCTURE
     1  ROC      2

