@<TRIPOS>MOLECULE
3cyx_ligand_096
   100   104
SMALL
GAST_HUCK
****
This file was generated by PARSER (from files_GN.cpp)

@<TRIPOS>ATOM
      1 O1         19.1022   22.0512   20.9638 O.2         1 ROC      -0.3762
      2 C1         19.4365   22.9028   20.1456 C.2         1 ROC       0.2293
      3 N1         21.1702   24.1782   19.1410 N.ar        1 ROC      -0.2737
      4 C2         20.7751   23.0505   19.7997 C.ar        1 ROC       0.1219
      5 C3         21.7596   22.0718   20.0808 C.ar        1 ROC      -0.0136
      6 C4         23.0879   22.2692   19.6616 C.ar        1 ROC      -0.0314
      7 C5         23.4493   23.4499   18.9809 C.ar        1 ROC       0.0097
      8 C6         24.7697   23.6939   18.5415 C.ar        1 ROC      -0.0444
      9 C7         25.0827   24.8957   17.8786 C.ar        1 ROC      -0.0546
     10 C8         24.0832   25.8586   17.6476 C.ar        1 ROC      -0.0545
     11 C9R        22.7634   25.6232   18.0738 C.ar        1 ROC      -0.0370
     12 C10        22.4420   24.4209   18.7358 C.ar        1 ROC       0.0527
     13 N2         18.5102   23.6509   19.5546 N.am        1 ROC      -0.2600
     14 C11        17.0797   23.6207   19.7592 C.3         1 ROC       0.1473
     15 C12        16.5062   22.3061   19.4522 C.2         1 ROC       0.2045
     16 O2         17.0608   21.5947   18.6226 O.2         1 ROC      -0.3943
     17 C13        16.4114   24.8505   19.0343 C.3         1 ROC       0.0773
     18 C14        15.3357   24.5758   18.0945 C.2         1 ROC       0.1780
     19 O3         15.5878   24.1678   16.9698 O.2         1 ROC      -0.3970
     20 N3         14.0762   24.7639   18.4230 N.am        1 ROC      -0.3007
     21 C15        13.4425   20.4831   19.4544 C.3         1 ROC       0.1194
     22 O4         12.4375   20.2055   20.4350 O.3         1 ROC      -0.3840
     23 C16        14.8815   20.5235   20.1196 C.3         1 ROC       0.0823
     24 N4         15.4287   21.8687   20.1053 N.am        1 ROC      -0.2772
     25 C17        14.9997   19.9966   21.5968 C.3         1 ROC       0.0066
     26 C18        14.3067   18.7255   21.9705 C.ar        1 ROC      -0.0408
     27 C19        14.1671   17.6379   21.0687 C.ar        1 ROC      -0.0603
     28 C20        13.7004   18.6129   23.2454 C.ar        1 ROC      -0.0603
     29 C21        13.3380   16.5401   21.3869 C.ar        1 ROC      -0.0686
     30 C22        12.9312   17.4842   23.5840 C.ar        1 ROC      -0.0686
     31 C23        12.7129   16.4654   22.6414 C.ar        1 ROC      -0.0687
     32 N5         13.2886   19.9596   16.8165 N.4         1 ROC       0.2562
     33 C24        13.3238   19.4683   18.2483 C.3         1 ROC      -0.0008
     34 C25        11.9313   20.2513   16.2318 C.3         1 ROC       0.0688
     35 C26        11.0040   19.1184   16.3359 C.2         1 ROC       0.2251
     36 O5          9.9196   19.2719   16.8930 O.2         1 ROC      -0.3909
     37 C27        12.0339   20.6196   14.7079 C.3         1 ROC       0.0113
     38 C28        13.0739   21.7376   14.4040 C.3         1 ROC      -0.0261
     39 C29        13.2493   22.0254   12.8813 C.3         1 ROC      -0.0494
     40 C30        14.0456   20.9318   12.1134 C.3         1 ROC      -0.0528
     41 C31        15.4078   20.6382   12.7929 C.3         1 ROC      -0.0526
     42 C32        15.2332   20.3017   14.2955 C.3         1 ROC      -0.0451
     43 C33        14.4490   21.4117   15.0608 C.3         1 ROC       0.0024
     44 C34        14.2633   21.0678   16.5662 C.3         1 ROC      -0.0266
     45 N6         11.3523   17.9540   15.8023 N.am        1 ROC      -0.2771
     46 C35        10.6136   16.7216   15.6862 C.3         1 ROC       0.0448
     47 C36         9.2108   16.9314   15.0341 C.3         1 ROC      -0.0396
     48 C37        10.4837   16.0449   17.0829 C.3         1 ROC      -0.0396
     49 C38        11.4607   15.8143   14.7406 C.3         1 ROC      -0.0396
     50 H1         21.5159   21.2007   20.5617 H           1 ROC       0.0729
     51 H2         23.7841   21.5441   19.8488 H           1 ROC       0.0774
     52 H3         25.5088   23.0043   18.7045 H           1 ROC       0.0657
     53 H4         26.0403   25.0706   17.5663 H           1 ROC       0.0652
     54 H5         24.3160   26.7318   17.1699 H           1 ROC       0.0657
     55 H6         22.0406   26.3257   17.9010 H           1 ROC       0.0653
     56 H7         18.8391   24.2917   18.9020 H           1 ROC       0.1882
     57 H8         16.9431   23.7816   20.8337 H           1 ROC       0.0826
     58 H9         17.1613   25.4327   18.4866 H           1 ROC       0.0551
     59 H10        16.0363   25.5386   19.7990 H           1 ROC       0.0551
     60 H11        13.3671   24.5845   17.7862 H           1 ROC       0.1814
     61 H12        13.8600   25.0722   19.3154 H           1 ROC       0.1814
     62 H13        13.1708   21.4644   19.0996 H           1 ROC       0.0672
     63 H14        11.6556   19.8454   19.9419 H           1 ROC       0.2101
     64 H15        15.5579   19.8813   19.5417 H           1 ROC       0.0606
     65 H16        15.0011   22.5120   20.7019 H           1 ROC       0.1857
     66 H17        14.6226   20.7948   22.2467 H           1 ROC       0.0449
     67 H18        16.0604   19.8680   21.8359 H           1 ROC       0.0449
     68 H19        14.6174   17.6591   20.1467 H           1 ROC       0.0557
     69 H20        13.8160   19.3525   23.9442 H           1 ROC       0.0557
     70 H21        13.1848   15.8017   20.7024 H           1 ROC       0.0599
     71 H22        12.4954   17.4168   24.5143 H           1 ROC       0.0599
     72 H23        12.1132   15.6723   22.8712 H           1 ROC       0.0559
     73 H24        13.6433   19.1638   16.2750 H           1 ROC       0.2057
     74 H25        12.4532   18.8229   18.4264 H           1 ROC       0.0841
     75 H26        14.1572   18.7440   18.2847 H           1 ROC       0.0841
     76 H27        11.5103   21.1194   16.7547 H           1 ROC       0.1100
     77 H28        11.0490   20.9498   14.3463 H           1 ROC       0.0348
     78 H29        12.3102   19.7308   14.1312 H           1 ROC       0.0348
     79 H30        12.6921   22.6567   14.8605 H           1 ROC       0.0309
     80 H31        13.7864   22.9719   12.7657 H           1 ROC       0.0268
     81 H32        12.2699   22.1490   12.4176 H           1 ROC       0.0268
     82 H33        14.2292   21.2711   11.0873 H           1 ROC       0.0265
     83 H34        13.4588   20.0094   12.0517 H           1 ROC       0.0265
     84 H35        16.0589   21.5125   12.6879 H           1 ROC       0.0265
     85 H36        15.8910   19.7970   12.2879 H           1 ROC       0.0265
     86 H37        16.2201   20.2099   14.7483 H           1 ROC       0.0270
     87 H38        14.7239   19.3396   14.3928 H           1 ROC       0.0270
     88 H39        15.0652   22.3250   15.0104 H           1 ROC       0.0355
     89 H40        15.2425   20.7967   16.9730 H           1 ROC       0.0818
     90 H41        13.9376   21.9822   17.0671 H           1 ROC       0.0818
     91 H42        12.2556   17.9224   15.4453 H           1 ROC       0.1859
     92 H43         8.7641   15.9719   14.7556 H           1 ROC       0.0254
     93 H44         9.2942   17.5454   14.1344 H           1 ROC       0.0254
     94 H45         8.5246   17.4247   15.7223 H           1 ROC       0.0254
     95 H46         9.9836   15.0774   16.9964 H           1 ROC       0.0254
     96 H47         9.9018   16.6703   17.7637 H           1 ROC       0.0254
     97 H48        11.4708   15.8853   17.5264 H           1 ROC       0.0254
     98 H49        10.9805   14.8454   14.5873 H           1 ROC       0.0254
     99 H50        12.4552   15.6390   15.1577 H           1 ROC       0.0254
    100 H51        11.5870   16.2926   13.7647 H           1 ROC       0.0254
@<TRIPOS>BOND
     1     2     1   2
     2     2     4   1
     3    13     2  am
     4     4     3  ar
     5     3    12  ar
     6     4     5  ar
     7     5     6  ar
     8     6     7  ar
     9     7     8  ar
    10    12     7  ar
    11     8     9  ar
    12    10     9  ar
    13    11    10  ar
    14    12    11  ar
    15    14    13   1
    16    15    14   1
    17    14    17   1
    18    15    16   2
    19    24    15  am
    20    17    18   1
    21    18    19   2
    22    18    20  am
    23    21    22   1
    24    23    21   1
    25    21    33   1
    26    23    24   1
    27    23    25   1
    28    25    26   1
    29    26    27  ar
    30    26    28  ar
    31    27    29  ar
    32    28    30  ar
    33    29    31  ar
    34    30    31  ar
    35    33    32   1
    36    32    34   1
    37    32    44   1
    38    34    35   1
    39    34    37   1
    40    35    36   2
    41    35    45  am
    42    37    38   1
    43    38    39   1
    44    38    43   1
    45    39    40   1
    46    40    41   1
    47    41    42   1
    48    42    43   1
    49    43    44   1
    50    45    46   1
    51    46    47   1
    52    46    48   1
    53    46    49   1
    54     5    50   1
    55     6    51   1
    56     8    52   1
    57     9    53   1
    58    10    54   1
    59    11    55   1
    60    13    56   1
    61    14    57   1
    62    17    58   1
    63    17    59   1
    64    20    60   1
    65    20    61   1
    66    21    62   1
    67    22    63   1
    68    23    64   1
    69    24    65   1
    70    25    66   1
    71    25    67   1
    72    27    68   1
    73    28    69   1
    74    29    70   1
    75    30    71   1
    76    31    72   1
    77    32    73   1
    78    33    74   1
    79    33    75   1
    80    34    76   1
    81    37    77   1
    82    37    78   1
    83    38    79   1
    84    39    80   1
    85    39    81   1
    86    40    82   1
    87    40    83   1
    88    41    84   1
    89    41    85   1
    90    42    86   1
    91    42    87   1
    92    43    88   1
    93    44    89   1
    94    44    90   1
    95    45    91   1
    96    47    92   1
    97    47    93   1
    98    47    94   1
    99    48    95   1
   100    48    96   1
   101    48    97   1
   102    49    98   1
   103    49    99   1
   104    49   100   1
@<TRIPOS>SUBSTRUCTURE
     1  ROC      2

