@<TRIPOS>MOLECULE
3cyx_ligand_016
   100   104
SMALL
GAST_HUCK
****
This file was generated by PARSER (from files_GN.cpp)

@<TRIPOS>ATOM
      1 O1         11.2459   15.1858   16.5836 O.2         1 ROC      -0.3762
      2 C1         10.0850   15.4552   16.8647 C.2         1 ROC       0.2293
      3 N1          7.9567   14.7823   17.6827 N.ar        1 ROC      -0.2737
      4 C2          9.2547   14.4778   17.4014 C.ar        1 ROC       0.1219
      5 C3          9.6904   13.1582   17.6767 C.ar        1 ROC      -0.0136
      6 C4          8.7910   12.2149   18.2075 C.ar        1 ROC      -0.0314
      7 C5          7.4528   12.5802   18.4778 C.ar        1 ROC       0.0097
      8 C6          6.5199   11.6706   19.0078 C.ar        1 ROC      -0.0444
      9 C7          5.1983   12.0813   19.2704 C.ar        1 ROC      -0.0546
     10 C8          4.8077   13.4082   19.0008 C.ar        1 ROC      -0.0545
     11 C9R         5.7322   14.3224   18.4659 C.ar        1 ROC      -0.0370
     12 C10         7.0521   13.9148   18.1994 C.ar        1 ROC       0.0527
     13 N2          9.6219   16.6916   16.6594 N.am        1 ROC      -0.2600
     14 C11        10.3538   17.8185   16.1465 C.3         1 ROC       0.1473
     15 C12        10.9511   18.5154   17.2773 C.2         1 ROC       0.2045
     16 O2         10.2143   19.1330   18.0335 O.2         1 ROC      -0.3943
     17 C13         9.4409   18.7706   15.3020 C.3         1 ROC       0.0773
     18 C14         8.5043   18.0730   14.4416 C.2         1 ROC       0.1780
     19 O3          8.8258   17.7002   13.3200 O.2         1 ROC      -0.3970
     20 N3          7.2924   17.7971   14.8763 N.am        1 ROC      -0.3007
     21 C15        13.7697   20.2649   18.0474 C.3         1 ROC       0.1194
     22 O4         14.9696   19.8297   17.3920 O.3         1 ROC      -0.3840
     23 C16        12.9753   19.0292   18.6027 C.3         1 ROC       0.0823
     24 N4         12.2565   18.4153   17.5193 N.am        1 ROC      -0.2772
     25 C17        13.8759   17.9526   19.3143 C.3         1 ROC       0.0066
     26 C18        13.4281   17.5752   20.6846 C.ar        1 ROC      -0.0408
     27 C19        12.6377   16.4226   20.9085 C.ar        1 ROC      -0.0603
     28 C20        13.8140   18.3581   21.8028 C.ar        1 ROC      -0.0603
     29 C21        12.2698   16.0480   22.2148 C.ar        1 ROC      -0.0686
     30 C22        13.4274   17.9955   23.1057 C.ar        1 ROC      -0.0686
     31 C23        12.6689   16.8330   23.3130 C.ar        1 ROC      -0.0687
     32 N5         15.3460   22.0846   19.0297 N.4         1 ROC       0.2562
     33 C24        14.0381   21.3452   19.1523 C.3         1 ROC      -0.0008
     34 C25        15.2606   23.4052   18.2963 C.3         1 ROC       0.0688
     35 C26        14.6473   23.3455   16.9649 C.2         1 ROC       0.2251
     36 O5         13.6005   23.9563   16.7902 O.2         1 ROC      -0.3909
     37 C27        16.6706   24.0641   18.1711 C.3         1 ROC       0.0113
     38 C28        17.3750   24.2360   19.5475 C.3         1 ROC      -0.0261
     39 C29        18.8072   24.8459   19.4300 C.3         1 ROC      -0.0494
     40 C30        19.8806   23.8397   18.9301 C.3         1 ROC      -0.0528
     41 C31        19.8843   22.5430   19.7761 C.3         1 ROC      -0.0526
     42 C32        18.4810   21.8925   19.8202 C.3         1 ROC      -0.0451
     43 C33        17.4057   22.8923   20.3424 C.3         1 ROC       0.0024
     44 C34        15.9964   22.2435   20.3795 C.3         1 ROC      -0.0266
     45 N6         15.2434   22.7021   15.9653 N.am        1 ROC      -0.2771
     46 C35        14.9606   22.7592   14.5451 C.3         1 ROC       0.0448
     47 C36        15.5004   21.4274   13.9459 C.3         1 ROC      -0.0396
     48 C37        15.7591   23.9502   13.9283 C.3         1 ROC      -0.0396
     49 C38        13.4428   22.8781   14.1812 C.3         1 ROC      -0.0396
     50 H1         10.6561   12.8698   17.4971 H           1 ROC       0.0729
     51 H2          9.1181   11.2637   18.4019 H           1 ROC       0.0774
     52 H3          6.7903   10.7051   19.2154 H           1 ROC       0.0657
     53 H4          4.5272   11.4222   19.6601 H           1 ROC       0.0652
     54 H5          3.8465   13.7031   19.1905 H           1 ROC       0.0657
     55 H6          5.4378   15.2822   18.2702 H           1 ROC       0.0653
     56 H7          8.7104   16.8763   16.9355 H           1 ROC       0.1882
     57 H8         11.1321   17.4614   15.4639 H           1 ROC       0.0826
     58 H9         10.0711   19.4202   14.6857 H           1 ROC       0.0551
     59 H10         8.8702   19.4342   15.9620 H           1 ROC       0.0551
     60 H11         6.6567   17.3233   14.3161 H           1 ROC       0.1814
     61 H12         7.0450   18.0500   15.7836 H           1 ROC       0.1814
     62 H13        13.1641   20.7458   17.2737 H           1 ROC       0.0672
     63 H14        14.7150   19.0158   16.9022 H           1 ROC       0.2101
     64 H15        12.2661   19.4144   19.3422 H           1 ROC       0.0606
     65 H16        12.7778   17.8952   16.8877 H           1 ROC       0.1857
     66 H17        14.9068   18.3086   19.3953 H           1 ROC       0.0449
     67 H18        13.9349   17.0486   18.6982 H           1 ROC       0.0449
     68 H19        12.3398   15.8400   20.1204 H           1 ROC       0.0557
     69 H20        14.3972   19.1861   21.6781 H           1 ROC       0.0557
     70 H21        11.7129   15.2049   22.3666 H           1 ROC       0.0599
     71 H22        13.7084   18.5721   23.9055 H           1 ROC       0.0599
     72 H23        12.4010   16.5622   24.2619 H           1 ROC       0.0559
     73 H24        15.9758   21.4961   18.4855 H           1 ROC       0.2057
     74 H25        13.9759   20.8364   20.1200 H           1 ROC       0.0841
     75 H26        13.1983   22.0496   19.1675 H           1 ROC       0.0841
     76 H27        14.6568   24.0857   18.9155 H           1 ROC       0.1100
     77 H28        16.5765   25.0529   17.7066 H           1 ROC       0.0348
     78 H29        17.2980   23.4527   17.5189 H           1 ROC       0.0348
     79 H30        16.7784   24.9503   20.1213 H           1 ROC       0.0309
     80 H31        19.1145   25.2126   20.4180 H           1 ROC       0.0268
     81 H32        18.7936   25.7119   18.7592 H           1 ROC       0.0268
     82 H33        20.8678   24.3066   18.9869 H           1 ROC       0.0265
     83 H34        19.6921   23.5901   17.8843 H           1 ROC       0.0265
     84 H35        20.2070   22.7749   20.7957 H           1 ROC       0.0265
     85 H36        20.5983   21.8321   19.3542 H           1 ROC       0.0265
     86 H37        18.5241   21.0223   20.4826 H           1 ROC       0.0270
     87 H38        18.2127   21.5366   18.8233 H           1 ROC       0.0270
     88 H39        17.6738   23.1352   21.3778 H           1 ROC       0.0355
     89 H40        16.0976   21.2644   20.8614 H           1 ROC       0.0818
     90 H41        15.3515   22.8483   21.0275 H           1 ROC       0.0818
     91 H42        16.0449   22.2160   16.2107 H           1 ROC       0.1859
     92 H43        15.3471   21.3937   12.8658 H           1 ROC       0.0254
     93 H44        14.9842   20.5724   14.3864 H           1 ROC       0.0254
     94 H45        16.5667   21.3206   14.1384 H           1 ROC       0.0254
     95 H46        15.5885   24.0108   12.8489 H           1 ROC       0.0254
     96 H47        16.8335   23.8204   14.0998 H           1 ROC       0.0254
     97 H48        15.4492   24.8965   14.3824 H           1 ROC       0.0254
     98 H49        13.2819   22.6952   13.1195 H           1 ROC       0.0254
     99 H50        13.0568   23.8789   14.3936 H           1 ROC       0.0254
    100 H51        12.8537   22.1570   14.7486 H           1 ROC       0.0254
@<TRIPOS>BOND
     1     2     1   2
     2     2     4   1
     3    13     2  am
     4     4     3  ar
     5     3    12  ar
     6     4     5  ar
     7     5     6  ar
     8     6     7  ar
     9     7     8  ar
    10    12     7  ar
    11     8     9  ar
    12    10     9  ar
    13    11    10  ar
    14    12    11  ar
    15    14    13   1
    16    15    14   1
    17    14    17   1
    18    15    16   2
    19    24    15  am
    20    17    18   1
    21    18    19   2
    22    18    20  am
    23    21    22   1
    24    23    21   1
    25    21    33   1
    26    23    24   1
    27    23    25   1
    28    25    26   1
    29    26    27  ar
    30    26    28  ar
    31    27    29  ar
    32    28    30  ar
    33    29    31  ar
    34    30    31  ar
    35    33    32   1
    36    32    34   1
    37    32    44   1
    38    34    35   1
    39    34    37   1
    40    35    36   2
    41    35    45  am
    42    37    38   1
    43    38    39   1
    44    38    43   1
    45    39    40   1
    46    40    41   1
    47    41    42   1
    48    42    43   1
    49    43    44   1
    50    45    46   1
    51    46    47   1
    52    46    48   1
    53    46    49   1
    54     5    50   1
    55     6    51   1
    56     8    52   1
    57     9    53   1
    58    10    54   1
    59    11    55   1
    60    13    56   1
    61    14    57   1
    62    17    58   1
    63    17    59   1
    64    20    60   1
    65    20    61   1
    66    21    62   1
    67    22    63   1
    68    23    64   1
    69    24    65   1
    70    25    66   1
    71    25    67   1
    72    27    68   1
    73    28    69   1
    74    29    70   1
    75    30    71   1
    76    31    72   1
    77    32    73   1
    78    33    74   1
    79    33    75   1
    80    34    76   1
    81    37    77   1
    82    37    78   1
    83    38    79   1
    84    39    80   1
    85    39    81   1
    86    40    82   1
    87    40    83   1
    88    41    84   1
    89    41    85   1
    90    42    86   1
    91    42    87   1
    92    43    88   1
    93    44    89   1
    94    44    90   1
    95    45    91   1
    96    47    92   1
    97    47    93   1
    98    47    94   1
    99    48    95   1
   100    48    96   1
   101    48    97   1
   102    49    98   1
   103    49    99   1
   104    49   100   1
@<TRIPOS>SUBSTRUCTURE
     1  ROC      2

