@<TRIPOS>MOLECULE
3cyx_ligand_026
   100   104
SMALL
GAST_HUCK
****
This file was generated by PARSER (from files_GN.cpp)

@<TRIPOS>ATOM
      1 O1         20.2418   22.7751   18.7258 O.2         1 ROC      -0.3762
      2 C1         20.1502   23.4913   19.7266 C.2         1 ROC       0.2293
      3 N1         21.2324   24.9147   21.2902 N.ar        1 ROC      -0.2737
      4 C2         21.3114   23.9204   20.3585 C.ar        1 ROC       0.1219
      5 C3         22.5864   23.3650   20.0910 C.ar        1 ROC      -0.0136
      6 C4         23.7194   23.8360   20.7825 C.ar        1 ROC      -0.0314
      7 C5         23.5915   24.8698   21.7325 C.ar        1 ROC       0.0097
      8 C6         24.6968   25.3795   22.4458 C.ar        1 ROC      -0.0444
      9 C7         24.5199   26.4143   23.3838 C.ar        1 ROC      -0.0546
     10 C8         23.2346   26.9494   23.6100 C.ar        1 ROC      -0.0545
     11 C9R        22.1287   26.4457   22.9078 C.ar        1 ROC      -0.0370
     12 C10        22.2990   25.4083   21.9703 C.ar        1 ROC       0.0527
     13 N2         18.9540   23.8366   20.1871 N.am        1 ROC      -0.2600
     14 C11        17.6480   23.4463   19.7183 C.3         1 ROC       0.1473
     15 C12        17.3681   22.0160   19.8456 C.2         1 ROC       0.2045
     16 O2         18.1389   21.1897   19.3515 O.2         1 ROC      -0.3943
     17 C13        17.3050   23.9672   18.2809 C.3         1 ROC       0.0773
     18 C14        16.7585   25.3069   18.2377 C.2         1 ROC       0.1780
     19 O3         17.2204   26.1622   17.4856 O.2         1 ROC      -0.3970
     20 N3         15.6604   25.5968   18.8965 N.am        1 ROC      -0.3007
     21 C15        15.1324   19.7689   19.0482 C.3         1 ROC       0.1194
     22 O4         16.1637   19.9259   18.0646 O.3         1 ROC      -0.3840
     23 C16        15.6508   20.3138   20.4284 C.3         1 ROC       0.0823
     24 N4         16.1818   21.6443   20.2988 N.am        1 ROC      -0.2772
     25 C17        14.5721   20.3817   21.5572 C.3         1 ROC       0.0066
     26 C18        13.7965   19.1309   21.7433 C.ar        1 ROC      -0.0408
     27 C19        14.3616   18.0393   22.4375 C.ar        1 ROC      -0.0603
     28 C20        12.4868   19.0159   21.2232 C.ar        1 ROC      -0.0603
     29 C21        13.6142   16.8621   22.6382 C.ar        1 ROC      -0.0686
     30 C22        11.7601   17.8133   21.3849 C.ar        1 ROC      -0.0686
     31 C23        12.3248   16.7406   22.0948 C.ar        1 ROC      -0.0687
     32 N5         13.5948   20.3485   17.0628 N.4         1 ROC       0.2562
     33 C24        13.7926   20.4017   18.5595 C.3         1 ROC      -0.0008
     34 C25        12.1572   20.3145   16.6064 C.3         1 ROC       0.0688
     35 C26        11.3945   19.1822   17.1363 C.2         1 ROC       0.2251
     36 O5         10.4813   19.4103   17.9355 O.2         1 ROC      -0.3909
     37 C27        12.0555   20.3093   15.0444 C.3         1 ROC       0.0113
     38 C28        12.8402   21.4832   14.3908 C.3         1 ROC      -0.0261
     39 C29        12.7656   21.4866   12.8362 C.3         1 ROC      -0.0494
     40 C30        13.6377   20.3960   12.1553 C.3         1 ROC      -0.0528
     41 C31        15.1028   20.4379   12.6591 C.3         1 ROC      -0.0526
     42 C32        15.1796   20.3754   14.2067 C.3         1 ROC      -0.0451
     43 C33        14.3228   21.4958   14.8677 C.3         1 ROC       0.0024
     44 C34        14.3664   21.4687   16.4182 C.3         1 ROC      -0.0266
     45 N6         11.7338   17.9378   16.8124 N.am        1 ROC      -0.2771
     46 C35        11.1405   16.6526   17.1003 C.3         1 ROC       0.0448
     47 C36         9.6323   16.6423   17.5088 C.3         1 ROC      -0.0396
     48 C37        11.9883   16.0217   18.2494 C.3         1 ROC      -0.0396
     49 C38        11.2982   15.8082   15.8009 C.3         1 ROC      -0.0396
     50 H1         22.7044   22.6106   19.4121 H           1 ROC       0.0729
     51 H2         24.6314   23.4190   20.5882 H           1 ROC       0.0774
     52 H3         25.6369   25.0048   22.2921 H           1 ROC       0.0657
     53 H4         25.3193   26.7801   23.8997 H           1 ROC       0.0652
     54 H5         23.1082   27.7011   24.2897 H           1 ROC       0.0657
     55 H6         21.1980   26.8382   23.0757 H           1 ROC       0.0653
     56 H7         18.9577   24.4113   20.9737 H           1 ROC       0.1882
     57 H8         16.9709   23.9512   20.4175 H           1 ROC       0.0826
     58 H9         16.5460   23.3247   17.8299 H           1 ROC       0.0551
     59 H10        18.1863   23.8957   17.6403 H           1 ROC       0.0551
     60 H11        15.2029   26.4395   18.7608 H           1 ROC       0.1814
     61 H12        15.2620   24.9418   19.4928 H           1 ROC       0.1814
     62 H13        14.9763   18.6867   19.1463 H           1 ROC       0.0672
     63 H14        16.7612   19.1422   18.1944 H           1 ROC       0.2101
     64 H15        16.4468   19.6433   20.7813 H           1 ROC       0.0606
     65 H16        15.5879   22.3708   20.5642 H           1 ROC       0.1857
     66 H17        13.8950   21.2129   21.3494 H           1 ROC       0.0449
     67 H18        15.0671   20.6150   22.5066 H           1 ROC       0.0449
     68 H19        15.3106   18.0999   22.8126 H           1 ROC       0.0557
     69 H20        12.0543   19.7834   20.7116 H           1 ROC       0.0557
     70 H21        14.0165   16.0910   23.1703 H           1 ROC       0.0599
     71 H22        10.8336   17.7294   20.9715 H           1 ROC       0.0599
     72 H23        11.7915   15.8784   22.2244 H           1 ROC       0.0559
     73 H24        14.0086   19.4556   16.7469 H           1 ROC       0.2057
     74 H25        13.6698   21.4256   18.9529 H           1 ROC       0.0841
     75 H26        12.9897   19.8146   19.0703 H           1 ROC       0.0841
     76 H27        11.6871   21.2474   16.9483 H           1 ROC       0.1100
     77 H28        11.0034   20.3841   14.7502 H           1 ROC       0.0348
     78 H29        12.4417   19.3608   14.6612 H           1 ROC       0.0348
     79 H30        12.3684   22.4136   14.7312 H           1 ROC       0.0309
     80 H31        13.0974   22.4643   12.4731 H           1 ROC       0.0268
     81 H32        11.7239   21.3627   12.5354 H           1 ROC       0.0268
     82 H33        13.6209   20.5556   11.0731 H           1 ROC       0.0265
     83 H34        13.2128   19.4062   12.3466 H           1 ROC       0.0265
     84 H35        15.5728   21.3601   12.3055 H           1 ROC       0.0265
     85 H36        15.6574   19.5982   12.2324 H           1 ROC       0.0265
     86 H37        16.2220   20.4977   14.5093 H           1 ROC       0.0270
     87 H38        14.8466   19.3925   14.5468 H           1 ROC       0.0270
     88 H39        14.7679   22.4471   14.5617 H           1 ROC       0.0355
     89 H40        15.4194   21.4140   16.7147 H           1 ROC       0.0818
     90 H41        13.9760   22.4294   16.7817 H           1 ROC       0.0818
     91 H42        12.5365   17.8798   16.2673 H           1 ROC       0.1859
     92 H43         9.2676   15.6142   17.6177 H           1 ROC       0.0254
     93 H44         9.0322   17.1336   16.7395 H           1 ROC       0.0254
     94 H45         9.4736   17.1463   18.4624 H           1 ROC       0.0254
     95 H46        11.6523   15.0044   18.4671 H           1 ROC       0.0254
     96 H47        11.8948   16.6188   19.1599 H           1 ROC       0.0254
     97 H48        13.0474   15.9996   17.9832 H           1 ROC       0.0254
     98 H49        10.9671   14.7787   15.9554 H           1 ROC       0.0254
     99 H50        12.3416   15.7802   15.4741 H           1 ROC       0.0254
    100 H51        10.7059   16.2394   14.9897 H           1 ROC       0.0254
@<TRIPOS>BOND
     1     2     1   2
     2     2     4   1
     3    13     2  am
     4     4     3  ar
     5     3    12  ar
     6     4     5  ar
     7     5     6  ar
     8     6     7  ar
     9     7     8  ar
    10    12     7  ar
    11     8     9  ar
    12    10     9  ar
    13    11    10  ar
    14    12    11  ar
    15    14    13   1
    16    15    14   1
    17    14    17   1
    18    15    16   2
    19    24    15  am
    20    17    18   1
    21    18    19   2
    22    18    20  am
    23    21    22   1
    24    23    21   1
    25    21    33   1
    26    23    24   1
    27    23    25   1
    28    25    26   1
    29    26    27  ar
    30    26    28  ar
    31    27    29  ar
    32    28    30  ar
    33    29    31  ar
    34    30    31  ar
    35    33    32   1
    36    32    34   1
    37    32    44   1
    38    34    35   1
    39    34    37   1
    40    35    36   2
    41    35    45  am
    42    37    38   1
    43    38    39   1
    44    38    43   1
    45    39    40   1
    46    40    41   1
    47    41    42   1
    48    42    43   1
    49    43    44   1
    50    45    46   1
    51    46    47   1
    52    46    48   1
    53    46    49   1
    54     5    50   1
    55     6    51   1
    56     8    52   1
    57     9    53   1
    58    10    54   1
    59    11    55   1
    60    13    56   1
    61    14    57   1
    62    17    58   1
    63    17    59   1
    64    20    60   1
    65    20    61   1
    66    21    62   1
    67    22    63   1
    68    23    64   1
    69    24    65   1
    70    25    66   1
    71    25    67   1
    72    27    68   1
    73    28    69   1
    74    29    70   1
    75    30    71   1
    76    31    72   1
    77    32    73   1
    78    33    74   1
    79    33    75   1
    80    34    76   1
    81    37    77   1
    82    37    78   1
    83    38    79   1
    84    39    80   1
    85    39    81   1
    86    40    82   1
    87    40    83   1
    88    41    84   1
    89    41    85   1
    90    42    86   1
    91    42    87   1
    92    43    88   1
    93    44    89   1
    94    44    90   1
    95    45    91   1
    96    47    92   1
    97    47    93   1
    98    47    94   1
    99    48    95   1
   100    48    96   1
   101    48    97   1
   102    49    98   1
   103    49    99   1
   104    49   100   1
@<TRIPOS>SUBSTRUCTURE
     1  ROC      2

