@<TRIPOS>MOLECULE
3cyx_ligand_070
   100   104
SMALL
GAST_HUCK
****
This file was generated by PARSER (from files_GN.cpp)

@<TRIPOS>ATOM
      1 O1         21.0273   24.4504   20.2172 O.2         1 ROC      -0.3762
      2 C1         20.5096   24.5387   19.1101 C.2         1 ROC       0.2293
      3 N1         20.5357   25.3842   16.8835 N.ar        1 ROC      -0.2737
      4 C2         21.1854   25.1765   18.0634 C.ar        1 ROC       0.1219
      5 C3         22.5217   25.6362   18.1641 C.ar        1 ROC      -0.0136
      6 C4         23.1341   26.2656   17.0641 C.ar        1 ROC      -0.0314
      7 C5         22.4212   26.4510   15.8623 C.ar        1 ROC       0.0097
      8 C6         22.9916   27.0661   14.7252 C.ar        1 ROC      -0.0444
      9 C7         22.2304   27.2297   13.5507 C.ar        1 ROC      -0.0546
     10 C8         20.8954   26.7836   13.5042 C.ar        1 ROC      -0.0545
     11 C9R        20.3185   26.1640   14.6257 C.ar        1 ROC      -0.0370
     12 C10        21.0780   25.9928   15.8025 C.ar        1 ROC       0.0527
     13 N2         19.2791   24.0797   18.8964 N.am        1 ROC      -0.2600
     14 C11        18.3438   23.4911   19.8260 C.3         1 ROC       0.1473
     15 C12        17.8288   22.2134   19.3248 C.2         1 ROC       0.2045
     16 O2         18.5002   21.5860   18.5128 O.2         1 ROC      -0.3943
     17 C13        17.2571   24.5685   20.1327 C.3         1 ROC       0.0773
     18 C14        16.6342   25.2048   18.9745 C.2         1 ROC       0.1780
     19 O3         17.3073   25.8418   18.1802 O.2         1 ROC      -0.3970
     20 N3         15.3269   25.2448   18.8150 N.am        1 ROC      -0.3007
     21 C15        15.4884   20.2810   18.1767 C.3         1 ROC       0.1194
     22 O4         16.4428   20.5535   17.1403 O.3         1 ROC      -0.3840
     23 C16        16.2131   20.3241   19.5814 C.3         1 ROC       0.0823
     24 N4         16.7661   21.6286   19.8861 N.am        1 ROC      -0.2772
     25 C17        15.3795   19.8191   20.8195 C.3         1 ROC       0.0066
     26 C18        14.4522   18.6795   20.5725 C.ar        1 ROC      -0.0408
     27 C19        13.1380   18.6670   21.1064 C.ar        1 ROC      -0.0603
     28 C20        14.8499   17.5983   19.7475 C.ar        1 ROC      -0.0603
     29 C21        12.2383   17.6374   20.7902 C.ar        1 ROC      -0.0686
     30 C22        13.9298   16.6045   19.3789 C.ar        1 ROC      -0.0686
     31 C23        12.6233   16.6153   19.8972 C.ar        1 ROC      -0.0687
     32 N5         13.2296   20.8391   16.9517 N.4         1 ROC       0.2562
     33 C24        14.2644   21.2367   17.9875 C.3         1 ROC      -0.0008
     34 C25        13.7446   20.2219   15.6660 C.3         1 ROC       0.0688
     35 C26        14.7820   20.9780   14.9698 C.2         1 ROC       0.2251
     36 O5         15.5158   20.3715   14.1979 O.2         1 ROC      -0.3909
     37 C27        12.5980   19.9357   14.6443 C.3         1 ROC       0.0113
     38 C28        11.4688   19.0672   15.2814 C.3         1 ROC      -0.0261
     39 C29        10.2965   18.7594   14.2992 C.3         1 ROC      -0.0494
     40 C30         9.3964   19.9908   14.0229 C.3         1 ROC      -0.0528
     41 C31         8.8985   20.6477   15.3357 C.3         1 ROC      -0.0526
     42 C32        10.0468   20.9531   16.3356 C.3         1 ROC      -0.0451
     43 C33        10.9480   19.7077   16.6071 C.3         1 ROC       0.0024
     44 C34        12.1375   20.0116   17.5659 C.3         1 ROC      -0.0266
     45 N6         14.9240   22.2847   15.1557 N.am        1 ROC      -0.2771
     46 C35        15.9880   23.1428   14.6884 C.3         1 ROC       0.0448
     47 C36        17.3332   22.7848   15.3966 C.3         1 ROC      -0.0396
     48 C37        15.5944   24.5907   15.1097 C.3         1 ROC      -0.0396
     49 C38        16.1248   23.0866   13.1341 C.3         1 ROC      -0.0396
     50 H1         23.0585   25.5092   19.0227 H           1 ROC       0.0729
     51 H2         24.1023   26.5818   17.1435 H           1 ROC       0.0774
     52 H3         23.9600   27.3980   14.7409 H           1 ROC       0.0657
     53 H4         22.6451   27.6770   12.7275 H           1 ROC       0.0652
     54 H5         20.3474   26.9092   12.6515 H           1 ROC       0.0657
     55 H6         19.3509   25.8385   14.5822 H           1 ROC       0.0653
     56 H7         18.9551   24.1771   17.9925 H           1 ROC       0.1882
     57 H8         18.8440   23.2622   20.7741 H           1 ROC       0.0826
     58 H9         17.7257   25.3580   20.7243 H           1 ROC       0.0551
     59 H10        16.4950   24.1292   20.7771 H           1 ROC       0.0551
     60 H11        14.9426   25.8049   18.1183 H           1 ROC       0.1814
     61 H12        14.7455   24.8187   19.4619 H           1 ROC       0.1814
     62 H13        15.1470   19.2522   18.0046 H           1 ROC       0.0672
     63 H14        17.1016   19.8231   17.2094 H           1 ROC       0.2101
     64 H15        17.0599   19.6333   19.5128 H           1 ROC       0.0606
     65 H16        16.3371   22.1166   20.6104 H           1 ROC       0.1857
     66 H17        14.8237   20.6628   21.2395 H           1 ROC       0.0449
     67 H18        16.0808   19.4930   21.5971 H           1 ROC       0.0449
     68 H19        12.8265   19.4206   21.7280 H           1 ROC       0.0557
     69 H20        15.7966   17.5573   19.3650 H           1 ROC       0.0557
     70 H21        11.2946   17.6357   21.1862 H           1 ROC       0.0599
     71 H22        14.2052   15.8808   18.7106 H           1 ROC       0.0599
     72 H23        11.9572   15.8839   19.6420 H           1 ROC       0.0559
     73 H24        12.7714   21.7107   16.6731 H           1 ROC       0.2057
     74 H25        14.6486   22.2224   17.7216 H           1 ROC       0.0841
     75 H26        13.7774   21.3729   18.9609 H           1 ROC       0.0841
     76 H27        14.1725   19.2468   15.9240 H           1 ROC       0.1100
     77 H28        13.0040   19.3941   13.7814 H           1 ROC       0.0348
     78 H29        12.1926   20.8845   14.2770 H           1 ROC       0.0348
     79 H30        11.9187   18.1008   15.5358 H           1 ROC       0.0309
     80 H31         9.6772   17.9679   14.7321 H           1 ROC       0.0268
     81 H32        10.6922   18.3799   13.3529 H           1 ROC       0.0268
     82 H33         8.5324   19.6771   13.4310 H           1 ROC       0.0265
     83 H34         9.9514   20.7239   13.4322 H           1 ROC       0.0265
     84 H35         8.1752   19.9827   15.8155 H           1 ROC       0.0265
     85 H36         8.3870   21.5812   15.0920 H           1 ROC       0.0265
     86 H37         9.5999   21.2856   17.2795 H           1 ROC       0.0270
     87 H38        10.6495   21.7790   15.9450 H           1 ROC       0.0270
     88 H39        10.3155   18.9674   17.1116 H           1 ROC       0.0355
     89 H40        11.7273   20.5171   18.4432 H           1 ROC       0.0818
     90 H41        12.5577   19.0619   17.9009 H           1 ROC       0.0818
     91 H42        14.2645   22.7040   15.7323 H           1 ROC       0.1859
     92 H43        18.1312   23.4517   15.0676 H           1 ROC       0.0254
     93 H44        17.6356   21.7646   15.1707 H           1 ROC       0.0254
     94 H45        17.2324   22.8680   16.4814 H           1 ROC       0.0254
     95 H46        16.3473   25.3149   14.7862 H           1 ROC       0.0254
     96 H47        15.4974   24.6597   16.1957 H           1 ROC       0.0254
     97 H48        14.6334   24.8661   14.6699 H           1 ROC       0.0254
     98 H49        16.8281   23.8448   12.7805 H           1 ROC       0.0254
     99 H50        15.1605   23.2761   12.6580 H           1 ROC       0.0254
    100 H51        16.4804   22.1079   12.8053 H           1 ROC       0.0254
@<TRIPOS>BOND
     1     2     1   2
     2     2     4   1
     3    13     2  am
     4     4     3  ar
     5     3    12  ar
     6     4     5  ar
     7     5     6  ar
     8     6     7  ar
     9     7     8  ar
    10    12     7  ar
    11     8     9  ar
    12    10     9  ar
    13    11    10  ar
    14    12    11  ar
    15    14    13   1
    16    15    14   1
    17    14    17   1
    18    15    16   2
    19    24    15  am
    20    17    18   1
    21    18    19   2
    22    18    20  am
    23    21    22   1
    24    23    21   1
    25    21    33   1
    26    23    24   1
    27    23    25   1
    28    25    26   1
    29    26    27  ar
    30    26    28  ar
    31    27    29  ar
    32    28    30  ar
    33    29    31  ar
    34    30    31  ar
    35    33    32   1
    36    32    34   1
    37    32    44   1
    38    34    35   1
    39    34    37   1
    40    35    36   2
    41    35    45  am
    42    37    38   1
    43    38    39   1
    44    38    43   1
    45    39    40   1
    46    40    41   1
    47    41    42   1
    48    42    43   1
    49    43    44   1
    50    45    46   1
    51    46    47   1
    52    46    48   1
    53    46    49   1
    54     5    50   1
    55     6    51   1
    56     8    52   1
    57     9    53   1
    58    10    54   1
    59    11    55   1
    60    13    56   1
    61    14    57   1
    62    17    58   1
    63    17    59   1
    64    20    60   1
    65    20    61   1
    66    21    62   1
    67    22    63   1
    68    23    64   1
    69    24    65   1
    70    25    66   1
    71    25    67   1
    72    27    68   1
    73    28    69   1
    74    29    70   1
    75    30    71   1
    76    31    72   1
    77    32    73   1
    78    33    74   1
    79    33    75   1
    80    34    76   1
    81    37    77   1
    82    37    78   1
    83    38    79   1
    84    39    80   1
    85    39    81   1
    86    40    82   1
    87    40    83   1
    88    41    84   1
    89    41    85   1
    90    42    86   1
    91    42    87   1
    92    43    88   1
    93    44    89   1
    94    44    90   1
    95    45    91   1
    96    47    92   1
    97    47    93   1
    98    47    94   1
    99    48    95   1
   100    48    96   1
   101    48    97   1
   102    49    98   1
   103    49    99   1
   104    49   100   1
@<TRIPOS>SUBSTRUCTURE
     1  ROC      2

