@<TRIPOS>MOLECULE
3cyx_ligand_040
   100   104
SMALL
GAST_HUCK
****
This file was generated by PARSER (from files_GN.cpp)

@<TRIPOS>ATOM
      1 O1         22.5373   26.9936   22.8721 O.2         1 ROC      -0.3762
      2 C1         23.0558   26.0637   22.2636 C.2         1 ROC       0.2293
      3 N1         24.7747   24.4232   22.1222 N.ar        1 ROC      -0.2737
      4 C2         24.2703   25.5464   22.7109 C.ar        1 ROC       0.1219
      5 C3         25.0217   26.1350   23.7595 C.ar        1 ROC      -0.0136
      6 C4         26.2443   25.5638   24.1570 C.ar        1 ROC      -0.0314
      7 C5         26.7227   24.4011   23.5229 C.ar        1 ROC       0.0097
      8 C6         27.9372   23.7862   23.8938 C.ar        1 ROC      -0.0444
      9 C7         28.3690   22.6203   23.2345 C.ar        1 ROC      -0.0546
     10 C8         27.5926   22.0597   22.2040 C.ar        1 ROC      -0.0545
     11 C9R        26.3805   22.6670   21.8220 C.ar        1 ROC      -0.0370
     12 C10        25.9435   23.8345   22.4771 C.ar        1 ROC       0.0527
     13 N2         22.4626   25.5596   21.1799 N.am        1 ROC      -0.2600
     14 C11        21.2528   26.0394   20.5509 C.3         1 ROC       0.1473
     15 C12        20.6922   25.0776   19.5961 C.2         1 ROC       0.2045
     16 O2         21.4005   24.2007   19.1168 O.2         1 ROC      -0.3943
     17 C13        21.4138   27.4571   19.9146 C.3         1 ROC       0.0773
     18 C14        22.2832   27.5432   18.7504 C.2         1 ROC       0.1780
     19 O3         21.9013   28.1186   17.7411 O.2         1 ROC      -0.3970
     20 N3         23.5314   27.1255   18.7662 N.am        1 ROC      -0.3007
     21 C15        17.0308   24.5917   18.8149 C.3         1 ROC       0.1194
     22 O4         16.1593   23.5824   19.3432 O.3         1 ROC      -0.3840
     23 C16        18.5460   24.1408   18.6509 C.3         1 ROC       0.0823
     24 N4         19.3943   25.1307   19.2976 N.am        1 ROC      -0.2772
     25 C17        18.9231   22.7295   19.2347 C.3         1 ROC       0.0066
     26 C18        17.9753   21.5905   19.0372 C.ar        1 ROC      -0.0408
     27 C19        17.5260   21.2232   17.7450 C.ar        1 ROC      -0.0603
     28 C20        17.5171   20.8411   20.1486 C.ar        1 ROC      -0.0603
     29 C21        16.6230   20.1572   17.5742 C.ar        1 ROC      -0.0686
     30 C22        16.6341   19.7564   19.9835 C.ar        1 ROC      -0.0686
     31 C23        16.1814   19.4186   18.6881 C.ar        1 ROC      -0.0687
     32 N5         15.8478   24.4563   16.3541 N.4         1 ROC       0.2562
     33 C24        16.3591   25.2449   17.5533 C.3         1 ROC      -0.0008
     34 C25        16.8480   24.1209   15.2714 C.3         1 ROC       0.0688
     35 C26        17.4522   25.3188   14.6852 C.2         1 ROC       0.2251
     36 O5         16.7435   26.0246   13.9793 O.2         1 ROC      -0.3909
     37 C27        16.2418   23.2999   14.0845 C.3         1 ROC       0.0113
     38 C28        15.4362   22.0638   14.5785 C.3         1 ROC      -0.0261
     39 C29        14.8385   21.2314   13.4033 C.3         1 ROC      -0.0494
     40 C30        13.6237   21.9118   12.7153 C.3         1 ROC      -0.0528
     41 C31        12.5449   22.3679   13.7379 C.3         1 ROC      -0.0526
     42 C32        13.1297   23.2271   14.8920 C.3         1 ROC      -0.0451
     43 C33        14.3227   22.4986   15.5832 C.3         1 ROC       0.0024
     44 C34        14.9616   23.3098   16.7513 C.3         1 ROC      -0.0266
     45 N6         18.7346   25.5952   14.8959 N.am        1 ROC      -0.2771
     46 C35        19.5717   26.6730   14.4161 C.3         1 ROC       0.0448
     47 C36        20.3252   27.2067   15.6681 C.3         1 ROC      -0.0396
     48 C37        18.8612   27.8748   13.7157 C.3         1 ROC      -0.0396
     49 C38        20.5932   26.0526   13.4164 C.3         1 ROC      -0.0396
     50 H1         24.6965   26.9778   24.2360 H           1 ROC       0.0729
     51 H2         26.7780   25.9997   24.9142 H           1 ROC       0.0774
     52 H3         28.5123   24.1810   24.6445 H           1 ROC       0.0657
     53 H4         29.2500   22.1769   23.5094 H           1 ROC       0.0652
     54 H5         27.9085   21.2104   21.7307 H           1 ROC       0.0657
     55 H6         25.8206   22.2535   21.0729 H           1 ROC       0.0653
     56 H7         22.9042   24.8090   20.7585 H           1 ROC       0.1882
     57 H8         20.5198   26.1378   21.3605 H           1 ROC       0.0826
     58 H9         21.8045   28.1438   20.6647 H           1 ROC       0.0551
     59 H10        20.4151   27.8262   19.6562 H           1 ROC       0.0551
     60 H11        24.0800   27.2419   17.9768 H           1 ROC       0.1814
     61 H12        23.9070   26.7030   19.5549 H           1 ROC       0.1814
     62 H13        17.0059   25.3680   19.5872 H           1 ROC       0.0672
     63 H14        15.4745   24.0847   19.8613 H           1 ROC       0.2101
     64 H15        18.7985   24.1338   17.5923 H           1 ROC       0.0606
     65 H16        18.9354   25.9167   19.6452 H           1 ROC       0.1857
     66 H17        19.1179   22.8539   20.3059 H           1 ROC       0.0449
     67 H18        19.8643   22.4046   18.7850 H           1 ROC       0.0449
     68 H19        17.8394   21.7398   16.9224 H           1 ROC       0.0557
     69 H20        17.8175   21.0840   21.0968 H           1 ROC       0.0557
     70 H21        16.2576   19.9561   16.6332 H           1 ROC       0.0599
     71 H22        16.3239   19.2195   20.7973 H           1 ROC       0.0599
     72 H23        15.5441   18.6230   18.5656 H           1 ROC       0.0559
     73 H24        15.2073   25.1076   15.8995 H           1 ROC       0.2057
     74 H25        17.0148   26.0463   17.2116 H           1 ROC       0.0841
     75 H26        15.4825   25.7758   17.9208 H           1 ROC       0.0841
     76 H27        17.6304   23.4986   15.7109 H           1 ROC       0.1100
     77 H28        17.0569   22.9418   13.4435 H           1 ROC       0.0348
     78 H29        15.5942   23.9336   13.4730 H           1 ROC       0.0348
     79 H30        16.1406   21.3990   15.1155 H           1 ROC       0.0309
     80 H31        14.5226   20.2577   13.7924 H           1 ROC       0.0268
     81 H32        15.6146   21.0437   12.6576 H           1 ROC       0.0268
     82 H33        13.1727   21.2105   12.0081 H           1 ROC       0.0265
     83 H34        13.9659   22.7776   12.1448 H           1 ROC       0.0265
     84 H35        12.0589   21.4831   14.1660 H           1 ROC       0.0265
     85 H36        11.7800   22.9487   13.2128 H           1 ROC       0.0265
     86 H37        12.3412   23.4190   15.6282 H           1 ROC       0.0270
     87 H38        13.4529   24.1950   14.5010 H           1 ROC       0.0270
     88 H39        13.9006   21.5847   16.0248 H           1 ROC       0.0355
     89 H40        14.1515   23.6842   17.3898 H           1 ROC       0.0818
     90 H41        15.5481   22.6033   17.3466 H           1 ROC       0.0818
     91 H42        19.1905   24.9707   15.4856 H           1 ROC       0.1859
     92 H43        21.0313   27.9935   15.3904 H           1 ROC       0.0254
     93 H44        20.8756   26.3999   16.1553 H           1 ROC       0.0254
     94 H45        19.6105   27.6179   16.3840 H           1 ROC       0.0254
     95 H46        19.5950   28.6036   13.3594 H           1 ROC       0.0254
     96 H47        18.1938   28.3828   14.4129 H           1 ROC       0.0254
     97 H48        18.2798   27.5346   12.8605 H           1 ROC       0.0254
     98 H49        21.2987   26.8079   13.0598 H           1 ROC       0.0254
     99 H50        20.0724   25.6350   12.5527 H           1 ROC       0.0254
    100 H51        21.1713   25.2498   13.8850 H           1 ROC       0.0254
@<TRIPOS>BOND
     1     2     1   2
     2     2     4   1
     3    13     2  am
     4     4     3  ar
     5     3    12  ar
     6     4     5  ar
     7     5     6  ar
     8     6     7  ar
     9     7     8  ar
    10    12     7  ar
    11     8     9  ar
    12    10     9  ar
    13    11    10  ar
    14    12    11  ar
    15    14    13   1
    16    15    14   1
    17    14    17   1
    18    15    16   2
    19    24    15  am
    20    17    18   1
    21    18    19   2
    22    18    20  am
    23    21    22   1
    24    23    21   1
    25    21    33   1
    26    23    24   1
    27    23    25   1
    28    25    26   1
    29    26    27  ar
    30    26    28  ar
    31    27    29  ar
    32    28    30  ar
    33    29    31  ar
    34    30    31  ar
    35    33    32   1
    36    32    34   1
    37    32    44   1
    38    34    35   1
    39    34    37   1
    40    35    36   2
    41    35    45  am
    42    37    38   1
    43    38    39   1
    44    38    43   1
    45    39    40   1
    46    40    41   1
    47    41    42   1
    48    42    43   1
    49    43    44   1
    50    45    46   1
    51    46    47   1
    52    46    48   1
    53    46    49   1
    54     5    50   1
    55     6    51   1
    56     8    52   1
    57     9    53   1
    58    10    54   1
    59    11    55   1
    60    13    56   1
    61    14    57   1
    62    17    58   1
    63    17    59   1
    64    20    60   1
    65    20    61   1
    66    21    62   1
    67    22    63   1
    68    23    64   1
    69    24    65   1
    70    25    66   1
    71    25    67   1
    72    27    68   1
    73    28    69   1
    74    29    70   1
    75    30    71   1
    76    31    72   1
    77    32    73   1
    78    33    74   1
    79    33    75   1
    80    34    76   1
    81    37    77   1
    82    37    78   1
    83    38    79   1
    84    39    80   1
    85    39    81   1
    86    40    82   1
    87    40    83   1
    88    41    84   1
    89    41    85   1
    90    42    86   1
    91    42    87   1
    92    43    88   1
    93    44    89   1
    94    44    90   1
    95    45    91   1
    96    47    92   1
    97    47    93   1
    98    47    94   1
    99    48    95   1
   100    48    96   1
   101    48    97   1
   102    49    98   1
   103    49    99   1
   104    49   100   1
@<TRIPOS>SUBSTRUCTURE
     1  ROC      2

