@<TRIPOS>MOLECULE
3cyx_ligand_087
   100   104
SMALL
GAST_HUCK
****
This file was generated by PARSER (from files_GN.cpp)

@<TRIPOS>ATOM
      1 O1         17.4829   26.5265   14.7829 O.2         1 ROC      -0.3762
      2 C1         18.2894   25.8577   15.4240 C.2         1 ROC       0.2293
      3 N1         20.1775   25.8389   16.8477 N.ar        1 ROC      -0.2737
      4 C2         19.4836   26.4277   15.8325 C.ar        1 ROC       0.1219
      5 C3         20.0181   27.6011   15.2531 C.ar        1 ROC      -0.0136
      6 C4         21.2469   28.1178   15.7216 C.ar        1 ROC      -0.0314
      7 C5         21.9281   27.4736   16.7721 C.ar        1 ROC       0.0097
      8 C6         23.1527   27.9558   17.2817 C.ar        1 ROC      -0.0444
      9 C7         23.7807   27.2926   18.3562 C.ar        1 ROC      -0.0546
     10 C8         23.1940   26.1428   18.9196 C.ar        1 ROC      -0.0545
     11 C9R        21.9816   25.6459   18.4112 C.ar        1 ROC      -0.0370
     12 C10        21.3510   26.3060   17.3377 C.ar        1 ROC       0.0527
     13 N2         18.0168   24.5937   15.7358 N.am        1 ROC      -0.2600
     14 C11        16.8043   23.8788   15.4454 C.3         1 ROC       0.1473
     15 C12        16.8013   22.7205   16.3376 C.2         1 ROC       0.2045
     16 O2         17.4437   21.7226   16.0154 O.2         1 ROC      -0.3943
     17 C13        16.5851   23.4890   13.9328 C.3         1 ROC       0.0773
     18 C14        17.2113   24.3423   12.9387 C.2         1 ROC       0.1780
     19 O3         18.4164   24.5711   12.9920 O.2         1 ROC      -0.3970
     20 N3         16.5519   24.8816   11.9359 N.am        1 ROC      -0.3007
     21 C15        14.8490   20.8574   18.4791 C.3         1 ROC       0.1194
     22 O4         15.2126   19.5983   17.9078 O.3         1 ROC      -0.3840
     23 C16        16.1446   21.7588   18.5431 C.3         1 ROC       0.0823
     24 N4         16.1815   22.7788   17.5217 N.am        1 ROC      -0.2772
     25 C17        16.3973   22.4193   19.9558 C.3         1 ROC       0.0066
     26 C18        17.8136   22.4103   20.4258 C.ar        1 ROC      -0.0408
     27 C19        18.5739   21.2145   20.3312 C.ar        1 ROC      -0.0603
     28 C20        18.3952   23.5169   21.0992 C.ar        1 ROC      -0.0603
     29 C21        19.8646   21.1242   20.8864 C.ar        1 ROC      -0.0686
     30 C22        19.6726   23.4205   21.6787 C.ar        1 ROC      -0.0686
     31 C23        20.4169   22.2230   21.5690 C.ar        1 ROC      -0.0687
     32 N5         13.1844   20.6916   16.5002 N.4         1 ROC       0.2562
     33 C24        13.5552   21.4247   17.7761 C.3         1 ROC      -0.0008
     34 C25        11.8157   20.0433   16.4566 C.3         1 ROC       0.0688
     35 C26        11.5014   19.2384   17.6311 C.2         1 ROC       0.2251
     36 O5         10.5124   19.5210   18.2993 O.2         1 ROC      -0.3909
     37 C27        11.6776   19.1307   15.1961 C.3         1 ROC       0.0113
     38 C28        12.0109   19.8891   13.8794 C.3         1 ROC      -0.0261
     39 C29        11.9562   18.9653   12.6216 C.3         1 ROC      -0.0494
     40 C30        13.1771   18.0165   12.4945 C.3         1 ROC      -0.0528
     41 C31        14.5101   18.8027   12.5737 C.3         1 ROC      -0.0526
     42 C32        14.5971   19.6705   13.8538 C.3         1 ROC      -0.0451
     43 C33        13.3795   20.6416   13.9721 C.3         1 ROC       0.0024
     44 C34        13.4441   21.5009   15.2681 C.3         1 ROC      -0.0266
     45 N6         12.2870   18.2190   17.9621 N.am        1 ROC      -0.2771
     46 C35        12.1460   17.2870   19.0524 C.3         1 ROC       0.0448
     47 C36        11.3230   16.0498   18.5782 C.3         1 ROC      -0.0396
     48 C37        11.5019   17.9377   20.3177 C.3         1 ROC      -0.0396
     49 C38        13.5880   16.8166   19.4241 C.3         1 ROC      -0.0396
     50 H1         19.5407   28.0779   14.4839 H           1 ROC       0.0729
     51 H2         21.6229   28.9685   15.3001 H           1 ROC       0.0774
     52 H3         23.5886   28.7910   16.8852 H           1 ROC       0.0657
     53 H4         24.6616   27.6491   18.7293 H           1 ROC       0.0652
     54 H5         23.6472   25.6709   19.7071 H           1 ROC       0.0657
     55 H6         21.5544   24.8134   18.8278 H           1 ROC       0.0653
     56 H7         18.6971   24.1169   16.2434 H           1 ROC       0.1882
     57 H8         15.9729   24.5345   15.7348 H           1 ROC       0.0826
     58 H9         15.5075   23.4658   13.7494 H           1 ROC       0.0551
     59 H10        16.9462   22.4768   13.7400 H           1 ROC       0.0551
     60 H11        17.0149   25.4582   11.3051 H           1 ROC       0.1814
     61 H12        15.6028   24.7074   11.8223 H           1 ROC       0.1814
     62 H13        14.5508   20.5988   19.4976 H           1 ROC       0.0672
     63 H14        15.7695   19.1472   18.5766 H           1 ROC       0.2101
     64 H15        16.9940   21.0780   18.3901 H           1 ROC       0.0606
     65 H16        15.6968   23.6009   17.7268 H           1 ROC       0.1857
     66 H17        15.8585   21.8757   20.7381 H           1 ROC       0.0449
     67 H18        15.9902   23.4326   19.9697 H           1 ROC       0.0449
     68 H19        18.1703   20.3967   19.8667 H           1 ROC       0.0557
     69 H20        17.8640   24.3884   21.2210 H           1 ROC       0.0557
     70 H21        20.3959   20.2491   20.8086 H           1 ROC       0.0599
     71 H22        20.0752   24.2134   22.1905 H           1 ROC       0.0599
     72 H23        21.3415   22.1433   22.0072 H           1 ROC       0.0559
     73 H24        13.8354   19.9096   16.4239 H           1 ROC       0.2057
     74 H25        13.6579   22.4997   17.6054 H           1 ROC       0.0841
     75 H26        12.7275   21.3609   18.4974 H           1 ROC       0.0841
     76 H27        11.0708   20.8418   16.3698 H           1 ROC       0.1100
     77 H28        10.6526   18.7515   15.1327 H           1 ROC       0.0348
     78 H29        12.3407   18.2685   15.2957 H           1 ROC       0.0348
     79 H30        11.2298   20.6463   13.7472 H           1 ROC       0.0309
     80 H31        11.9274   19.5920   11.7270 H           1 ROC       0.0268
     81 H32        11.0385   18.3732   12.6312 H           1 ROC       0.0268
     82 H33        13.1281   17.4898   11.5348 H           1 ROC       0.0265
     83 H34        13.1483   17.2605   13.2839 H           1 ROC       0.0265
     84 H35        14.5970   19.4531   11.6994 H           1 ROC       0.0265
     85 H36        15.3440   18.0976   12.5525 H           1 ROC       0.0265
     86 H37        15.5268   20.2451   13.8196 H           1 ROC       0.0270
     87 H38        14.6472   19.0116   14.7240 H           1 ROC       0.0270
     88 H39        13.4404   21.3364   13.1253 H           1 ROC       0.0355
     89 H40        14.4386   21.9491   15.3280 H           1 ROC       0.0818
     90 H41        12.7225   22.3223   15.2022 H           1 ROC       0.0818
     91 H42        13.0338   18.0493   17.3663 H           1 ROC       0.1859
     92 H43        11.2653   15.2965   19.3688 H           1 ROC       0.0254
     93 H44        11.7912   15.5943   17.6999 H           1 ROC       0.0254
     94 H45        10.3044   16.3395   18.3094 H           1 ROC       0.0254
     95 H46        11.5451   17.2536   21.1739 H           1 ROC       0.0254
     96 H47        10.4493   18.1728   20.1450 H           1 ROC       0.0254
     97 H48        12.0227   18.8651   20.5803 H           1 ROC       0.0254
     98 H49        13.5513   16.0662   20.2151 H           1 ROC       0.0254
     99 H50        14.1894   17.6549   19.7841 H           1 ROC       0.0254
    100 H51        14.0927   16.3778   18.5587 H           1 ROC       0.0254
@<TRIPOS>BOND
     1     2     1   2
     2     2     4   1
     3    13     2  am
     4     4     3  ar
     5     3    12  ar
     6     4     5  ar
     7     5     6  ar
     8     6     7  ar
     9     7     8  ar
    10    12     7  ar
    11     8     9  ar
    12    10     9  ar
    13    11    10  ar
    14    12    11  ar
    15    14    13   1
    16    15    14   1
    17    14    17   1
    18    15    16   2
    19    24    15  am
    20    17    18   1
    21    18    19   2
    22    18    20  am
    23    21    22   1
    24    23    21   1
    25    21    33   1
    26    23    24   1
    27    23    25   1
    28    25    26   1
    29    26    27  ar
    30    26    28  ar
    31    27    29  ar
    32    28    30  ar
    33    29    31  ar
    34    30    31  ar
    35    33    32   1
    36    32    34   1
    37    32    44   1
    38    34    35   1
    39    34    37   1
    40    35    36   2
    41    35    45  am
    42    37    38   1
    43    38    39   1
    44    38    43   1
    45    39    40   1
    46    40    41   1
    47    41    42   1
    48    42    43   1
    49    43    44   1
    50    45    46   1
    51    46    47   1
    52    46    48   1
    53    46    49   1
    54     5    50   1
    55     6    51   1
    56     8    52   1
    57     9    53   1
    58    10    54   1
    59    11    55   1
    60    13    56   1
    61    14    57   1
    62    17    58   1
    63    17    59   1
    64    20    60   1
    65    20    61   1
    66    21    62   1
    67    22    63   1
    68    23    64   1
    69    24    65   1
    70    25    66   1
    71    25    67   1
    72    27    68   1
    73    28    69   1
    74    29    70   1
    75    30    71   1
    76    31    72   1
    77    32    73   1
    78    33    74   1
    79    33    75   1
    80    34    76   1
    81    37    77   1
    82    37    78   1
    83    38    79   1
    84    39    80   1
    85    39    81   1
    86    40    82   1
    87    40    83   1
    88    41    84   1
    89    41    85   1
    90    42    86   1
    91    42    87   1
    92    43    88   1
    93    44    89   1
    94    44    90   1
    95    45    91   1
    96    47    92   1
    97    47    93   1
    98    47    94   1
    99    48    95   1
   100    48    96   1
   101    48    97   1
   102    49    98   1
   103    49    99   1
   104    49   100   1
@<TRIPOS>SUBSTRUCTURE
     1  ROC      2

