@<TRIPOS>MOLECULE
3cyx_ligand_023
   100   104
SMALL
GAST_HUCK
****
This file was generated by PARSER (from files_GN.cpp)

@<TRIPOS>ATOM
      1 O1         20.4378   22.3969   19.7433 O.2         1 ROC      -0.3762
      2 C1         20.1194   23.3199   18.9968 C.2         1 ROC       0.2293
      3 N1         20.7512   25.2662   17.7814 N.ar        1 ROC      -0.2737
      4 C2         21.1052   24.1856   18.5352 C.ar        1 ROC       0.1219
      5 C3         22.4788   24.0208   18.8422 C.ar        1 ROC      -0.0136
      6 C4         23.4238   24.9540   18.3819 C.ar        1 ROC      -0.0314
      7 C5         23.0110   26.0579   17.6105 C.ar        1 ROC       0.0097
      8 C6         23.9205   27.0283   17.1357 C.ar        1 ROC      -0.0444
      9 C7         23.4577   28.1217   16.3811 C.ar        1 ROC      -0.0546
     10 C8         22.0855   28.2509   16.0931 C.ar        1 ROC      -0.0545
     11 C9R        21.1716   27.2837   16.5514 C.ar        1 ROC      -0.0370
     12 C10        21.6275   26.1913   17.3131 C.ar        1 ROC       0.0527
     13 N2         18.8466   23.4682   18.6365 N.am        1 ROC      -0.2600
     14 C11        17.7261   22.6825   19.0928 C.3         1 ROC       0.1473
     15 C12        17.2690   21.7932   18.0264 C.2         1 ROC       0.2045
     16 O2         18.1043   21.0810   17.4769 O.2         1 ROC      -0.3943
     17 C13        16.6648   23.6095   19.7771 C.3         1 ROC       0.0773
     18 C14        15.7369   24.3116   18.8995 C.2         1 ROC       0.1780
     19 O3         14.6228   23.8422   18.6851 O.2         1 ROC      -0.3970
     20 N3         16.0136   25.4796   18.3635 N.am        1 ROC      -0.3007
     21 C15        14.2854   21.3066   16.0317 C.3         1 ROC       0.1194
     22 O4         14.2785   22.7268   16.2402 O.3         1 ROC      -0.3840
     23 C16        15.3164   20.5927   17.0101 C.3         1 ROC       0.0823
     24 N4         15.9699   21.5724   17.8355 N.am        1 ROC      -0.2772
     25 C17        14.8023   19.4263   17.9390 C.3         1 ROC       0.0066
     26 C18        14.8670   19.6081   19.4194 C.ar        1 ROC      -0.0408
     27 C19        16.0842   19.3923   20.1133 C.ar        1 ROC      -0.0603
     28 C20        13.7239   19.9733   20.1686 C.ar        1 ROC      -0.0603
     29 C21        16.1363   19.4724   21.5192 C.ar        1 ROC      -0.0686
     30 C22        13.7687   20.0354   21.5762 C.ar        1 ROC      -0.0686
     31 C23        14.9739   19.7630   22.2523 C.ar        1 ROC      -0.0687
     32 N5         12.4635   19.5260   15.3550 N.4         1 ROC       0.2562
     33 C24        12.7804   20.8698   15.9965 C.3         1 ROC      -0.0008
     34 C25        11.1531   18.9214   15.8216 C.3         1 ROC       0.0688
     35 C26        11.0883   18.6035   17.2603 C.2         1 ROC       0.2251
     36 O5         10.2728   19.2083   17.9445 O.2         1 ROC      -0.3909
     37 C27        10.7773   17.6202   15.0350 C.3         1 ROC       0.0113
     38 C28        10.7641   17.8247   13.4947 C.3         1 ROC      -0.0261
     39 C29        10.3823   16.5254   12.7141 C.3         1 ROC      -0.0494
     40 C30        11.5274   15.4810   12.6478 C.3         1 ROC      -0.0528
     41 C31        12.8338   16.1076   12.0987 C.3         1 ROC      -0.0526
     42 C32        13.2626   17.3491   12.9244 C.3         1 ROC      -0.0451
     43 C33        12.1250   18.4132   12.9998 C.3         1 ROC       0.0024
     44 C34        12.5135   19.6620   13.8448 C.3         1 ROC      -0.0266
     45 N6         11.8253   17.6182   17.7767 N.am        1 ROC      -0.2771
     46 C35        11.7388   16.9314   19.0550 C.3         1 ROC       0.0448
     47 C36        10.9665   15.5982   18.8031 C.3         1 ROC      -0.0396
     48 C37        11.0598   17.7224   20.2215 C.3         1 ROC      -0.0396
     49 C38        13.1958   16.5822   19.4896 C.3         1 ROC      -0.0396
     50 H1         22.8035   23.2306   19.4043 H           1 ROC       0.0729
     51 H2         24.4104   24.8250   18.6182 H           1 ROC       0.0774
     52 H3         24.9212   26.9477   17.3375 H           1 ROC       0.0657
     53 H4         24.1177   28.8255   16.0429 H           1 ROC       0.0652
     54 H5         21.7509   29.0502   15.5504 H           1 ROC       0.0657
     55 H6         20.1756   27.3864   16.3393 H           1 ROC       0.0653
     56 H7         18.6524   24.1663   17.9905 H           1 ROC       0.1882
     57 H8         18.0531   22.0064   19.8909 H           1 ROC       0.0826
     58 H9         17.1748   24.3502   20.4007 H           1 ROC       0.0551
     59 H10        16.0868   22.9796   20.4641 H           1 ROC       0.0551
     60 H11        15.3349   25.9330   17.8380 H           1 ROC       0.1814
     61 H12        16.8721   25.9048   18.5147 H           1 ROC       0.1814
     62 H13        14.6764   21.1863   15.0147 H           1 ROC       0.0672
     63 H14        15.1276   23.0358   15.8606 H           1 ROC       0.2101
     64 H15        16.0749   20.1365   16.3618 H           1 ROC       0.0606
     65 H16        15.3657   22.1042   18.3759 H           1 ROC       0.1857
     66 H17        15.3589   18.5129   17.6912 H           1 ROC       0.0449
     67 H18        13.7771   19.1773   17.7067 H           1 ROC       0.0449
     68 H19        16.9297   19.1524   19.5947 H           1 ROC       0.0557
     69 H20        12.8324   20.1614   19.6979 H           1 ROC       0.0557
     70 H21        17.0151   19.2864   22.0127 H           1 ROC       0.0599
     71 H22        12.9244   20.2403   22.1129 H           1 ROC       0.0599
     72 H23        14.9983   19.7920   23.2721 H           1 ROC       0.0559
     73 H24        13.1981   18.8603   15.6248 H           1 ROC       0.2057
     74 H25        12.2142   21.6459   15.4662 H           1 ROC       0.0841
     75 H26        12.3988   20.9294   17.0176 H           1 ROC       0.0841
     76 H27        10.3673   19.6549   15.5948 H           1 ROC       0.1100
     77 H28         9.7819   17.2845   15.3479 H           1 ROC       0.0348
     78 H29        11.4870   16.8250   15.2766 H           1 ROC       0.0348
     79 H30         9.9832   18.5637   13.2783 H           1 ROC       0.0309
     80 H31        10.1073   16.8005   11.6909 H           1 ROC       0.0268
     81 H32         9.5035   16.0629   13.1720 H           1 ROC       0.0268
     82 H33        11.2247   14.6559   11.9967 H           1 ROC       0.0265
     83 H34        11.7119   15.0669   13.6426 H           1 ROC       0.0265
     84 H35        12.6849   16.4015   11.0542 H           1 ROC       0.0265
     85 H36        13.6310   15.3594   12.1278 H           1 ROC       0.0265
     86 H37        14.1458   17.7900   12.4513 H           1 ROC       0.0270
     87 H38        13.5471   17.0319   13.9289 H           1 ROC       0.0270
     88 H39        11.9700   18.7635   11.9705 H           1 ROC       0.0355
     89 H40        13.5179   19.9610   13.5342 H           1 ROC       0.0818
     90 H41        11.8337   20.4656   13.5297 H           1 ROC       0.0818
     91 H42        12.4499   17.2171   17.1466 H           1 ROC       0.1859
     92 H43        10.9374   14.9915   19.7099 H           1 ROC       0.0254
     93 H44        11.4515   15.0142   18.0184 H           1 ROC       0.0254
     94 H45         9.9394   15.8005   18.4950 H           1 ROC       0.0254
     95 H46        11.2370   17.2285   21.1836 H           1 ROC       0.0254
     96 H47         9.9764   17.7813   20.0709 H           1 ROC       0.0254
     97 H48        11.4631   18.7403   20.2825 H           1 ROC       0.0254
     98 H49        13.1775   15.9127   20.3591 H           1 ROC       0.0254
     99 H50        13.7547   17.4797   19.7787 H           1 ROC       0.0254
    100 H51        13.7351   16.0839   18.6730 H           1 ROC       0.0254
@<TRIPOS>BOND
     1     2     1   2
     2     2     4   1
     3    13     2  am
     4     4     3  ar
     5     3    12  ar
     6     4     5  ar
     7     5     6  ar
     8     6     7  ar
     9     7     8  ar
    10    12     7  ar
    11     8     9  ar
    12    10     9  ar
    13    11    10  ar
    14    12    11  ar
    15    14    13   1
    16    15    14   1
    17    14    17   1
    18    15    16   2
    19    24    15  am
    20    17    18   1
    21    18    19   2
    22    18    20  am
    23    21    22   1
    24    23    21   1
    25    21    33   1
    26    23    24   1
    27    23    25   1
    28    25    26   1
    29    26    27  ar
    30    26    28  ar
    31    27    29  ar
    32    28    30  ar
    33    29    31  ar
    34    30    31  ar
    35    33    32   1
    36    32    34   1
    37    32    44   1
    38    34    35   1
    39    34    37   1
    40    35    36   2
    41    35    45  am
    42    37    38   1
    43    38    39   1
    44    38    43   1
    45    39    40   1
    46    40    41   1
    47    41    42   1
    48    42    43   1
    49    43    44   1
    50    45    46   1
    51    46    47   1
    52    46    48   1
    53    46    49   1
    54     5    50   1
    55     6    51   1
    56     8    52   1
    57     9    53   1
    58    10    54   1
    59    11    55   1
    60    13    56   1
    61    14    57   1
    62    17    58   1
    63    17    59   1
    64    20    60   1
    65    20    61   1
    66    21    62   1
    67    22    63   1
    68    23    64   1
    69    24    65   1
    70    25    66   1
    71    25    67   1
    72    27    68   1
    73    28    69   1
    74    29    70   1
    75    30    71   1
    76    31    72   1
    77    32    73   1
    78    33    74   1
    79    33    75   1
    80    34    76   1
    81    37    77   1
    82    37    78   1
    83    38    79   1
    84    39    80   1
    85    39    81   1
    86    40    82   1
    87    40    83   1
    88    41    84   1
    89    41    85   1
    90    42    86   1
    91    42    87   1
    92    43    88   1
    93    44    89   1
    94    44    90   1
    95    45    91   1
    96    47    92   1
    97    47    93   1
    98    47    94   1
    99    48    95   1
   100    48    96   1
   101    48    97   1
   102    49    98   1
   103    49    99   1
   104    49   100   1
@<TRIPOS>SUBSTRUCTURE
     1  ROC      2

