@<TRIPOS>MOLECULE
3cyx_ligand_072
   100   104
SMALL
GAST_HUCK
****
This file was generated by PARSER (from files_GN.cpp)

@<TRIPOS>ATOM
      1 O1         19.3405   21.8051   18.8993 O.2         1 ROC      -0.3762
      2 C1         19.3331   22.7318   19.6993 C.2         1 ROC       0.2293
      3 N1         20.5754   24.3986   20.8459 N.ar        1 ROC      -0.2737
      4 C2         20.5243   23.1657   20.2709 C.ar        1 ROC       0.1219
      5 C3         21.7058   22.3848   20.2754 C.ar        1 ROC      -0.0136
      6 C4         22.8822   22.8919   20.8594 C.ar        1 ROC      -0.0314
      7 C5         22.8966   24.1830   21.4232 C.ar        1 ROC       0.0097
      8 C6         24.0565   24.7465   21.9972 C.ar        1 ROC      -0.0444
      9 C7         24.0172   26.0426   22.5471 C.ar        1 ROC      -0.0546
     10 C8         22.8137   26.7769   22.5358 C.ar        1 ROC      -0.0545
     11 C9R        21.6547   26.2245   21.9661 C.ar        1 ROC      -0.0370
     12 C10        21.6908   24.9350   21.4067 C.ar        1 ROC       0.0527
     13 N2         18.1736   23.2782   20.0588 N.am        1 ROC      -0.2600
     14 C11        16.8465   22.9767   19.5750 C.3         1 ROC       0.1473
     15 C12        16.4240   21.5776   19.6925 C.2         1 ROC       0.2045
     16 O2         17.2101   20.7209   20.0826 O.2         1 ROC      -0.3943
     17 C13        16.6331   23.5458   18.1301 C.3         1 ROC       0.0773
     18 C14        16.3678   24.9737   18.0938 C.2         1 ROC       0.1780
     19 O3         16.9784   25.7150   17.3407 O.2         1 ROC      -0.3970
     20 N3         15.3751   25.4761   18.7961 N.am        1 ROC      -0.3007
     21 C15        13.9798   19.6663   17.9789 C.3         1 ROC       0.1194
     22 O4         14.9841   20.0345   17.0252 O.3         1 ROC      -0.3840
     23 C16        14.5493   19.9568   19.4140 C.3         1 ROC       0.0823
     24 N4         15.1599   21.2648   19.4052 N.am        1 ROC      -0.2772
     25 C17        13.5625   19.8961   20.6312 C.3         1 ROC       0.0066
     26 C18        13.1404   18.5394   21.1030 C.ar        1 ROC      -0.0408
     27 C19        13.2889   18.1737   22.4674 C.ar        1 ROC      -0.0603
     28 C20        12.5006   17.6230   20.2356 C.ar        1 ROC      -0.0603
     29 C21        12.8549   16.9173   22.9314 C.ar        1 ROC      -0.0686
     30 C22        12.0891   16.3576   20.6936 C.ar        1 ROC      -0.0686
     31 C23        12.2675   16.0023   22.0407 C.ar        1 ROC      -0.0687
     32 N5         11.9032   19.9471   16.3411 N.4         1 ROC       0.2562
     33 C24        12.6288   20.3665   17.6036 C.3         1 ROC      -0.0008
     34 C25        12.7202   19.8162   15.0728 C.3         1 ROC       0.0688
     35 C26        13.5020   20.9992   14.7039 C.2         1 ROC       0.2251
     36 O5         13.2082   22.0986   15.1509 O.2         1 ROC      -0.3909
     37 C27        11.8210   19.4549   13.8413 C.3         1 ROC       0.0113
     38 C28        10.8968   18.2304   14.0927 C.3         1 ROC      -0.0261
     39 C29         9.9572   17.9151   12.8845 C.3         1 ROC      -0.0494
     40 C30         8.7838   18.9202   12.7294 C.3         1 ROC      -0.0528
     41 C31         7.9957   19.0887   14.0535 C.3         1 ROC      -0.0526
     42 C32         8.9260   19.4541   15.2392 C.3         1 ROC      -0.0451
     43 C33        10.0774   18.4125   15.4067 C.3         1 ROC       0.0024
     44 C34        11.0364   18.7423   16.5843 C.3         1 ROC      -0.0266
     45 N6         14.4171   20.8766   13.7486 N.am        1 ROC      -0.2771
     46 C35        15.2461   21.8840   13.1340 C.3         1 ROC       0.0448
     47 C36        14.4153   23.1080   12.6436 C.3         1 ROC      -0.0396
     48 C37        15.8855   21.2085   11.8852 C.3         1 ROC      -0.0396
     49 C38        16.3541   22.3353   14.1313 C.3         1 ROC      -0.0396
     50 H1         21.7208   21.4443   19.8774 H           1 ROC       0.0729
     51 H2         23.7251   22.3120   20.8725 H           1 ROC       0.0774
     52 H3         24.9337   24.2212   22.0241 H           1 ROC       0.0657
     53 H4         24.8593   26.4531   22.9557 H           1 ROC       0.0652
     54 H5         22.7850   27.7123   22.9447 H           1 ROC       0.0657
     55 H6         20.7867   26.7680   21.9551 H           1 ROC       0.0653
     56 H7         18.2281   23.9736   20.7301 H           1 ROC       0.1882
     57 H8         16.1826   23.5133   20.2581 H           1 ROC       0.0826
     58 H9         15.7793   23.0688   17.6459 H           1 ROC       0.0551
     59 H10        17.5012   23.3122   17.5106 H           1 ROC       0.0551
     60 H11        15.1035   26.3979   18.6755 H           1 ROC       0.1814
     61 H12        14.8738   24.9183   19.4139 H           1 ROC       0.1814
     62 H13        13.8607   18.5904   17.8798 H           1 ROC       0.0672
     63 H14        14.9272   21.0097   16.9427 H           1 ROC       0.2101
     64 H15        15.3113   19.1929   19.6016 H           1 ROC       0.0606
     65 H16        14.5771   21.9987   19.1464 H           1 ROC       0.1857
     66 H17        12.6654   20.4790   20.4291 H           1 ROC       0.0449
     67 H18        14.0534   20.4134   21.4623 H           1 ROC       0.0449
     68 H19        13.6994   18.8303   23.1428 H           1 ROC       0.0557
     69 H20        12.3105   17.8784   19.2677 H           1 ROC       0.0557
     70 H21        12.9532   16.6753   23.9211 H           1 ROC       0.0599
     71 H22        11.6372   15.7055   20.0487 H           1 ROC       0.0599
     72 H23        11.9477   15.0920   22.3741 H           1 ROC       0.0559
     73 H24        11.2493   20.7113   16.1576 H           1 ROC       0.2057
     74 H25        12.8158   21.4403   17.5789 H           1 ROC       0.0841
     75 H26        11.9223   20.2370   18.4229 H           1 ROC       0.0841
     76 H27        13.4208   18.9887   15.2174 H           1 ROC       0.1100
     77 H28        12.4482   19.2218   12.9757 H           1 ROC       0.0348
     78 H29        11.2145   20.3248   13.5780 H           1 ROC       0.0348
     79 H30        11.5489   17.3584   14.2176 H           1 ROC       0.0309
     80 H31         9.5338   16.9156   13.0214 H           1 ROC       0.0268
     81 H32        10.5354   17.8962   11.9558 H           1 ROC       0.0268
     82 H33         8.1021   18.5647   11.9514 H           1 ROC       0.0265
     83 H34         9.1653   19.8938   12.4091 H           1 ROC       0.0265
     84 H35         7.4692   18.1582   14.2820 H           1 ROC       0.0265
     85 H36         7.2464   19.8730   13.9277 H           1 ROC       0.0265
     86 H37         8.3310   19.4877   16.1530 H           1 ROC       0.0270
     87 H38         9.3341   20.4549   15.0807 H           1 ROC       0.0270
     88 H39         9.6098   17.4499   15.6432 H           1 ROC       0.0355
     89 H40        10.4205   18.8882   17.4759 H           1 ROC       0.0818
     90 H41        11.6685   17.8669   16.7666 H           1 ROC       0.0818
     91 H42        14.5258   19.9775   13.3974 H           1 ROC       0.1859
     92 H43        15.0184   23.7625   12.0106 H           1 ROC       0.0254
     93 H44        14.0663   23.6955   13.4912 H           1 ROC       0.0254
     94 H45        13.5459   22.7781   12.0700 H           1 ROC       0.0254
     95 H46        16.5805   21.8834   11.3835 H           1 ROC       0.0254
     96 H47        15.1094   20.9258   11.1698 H           1 ROC       0.0254
     97 H48        16.4283   20.3046   12.1653 H           1 ROC       0.0254
     98 H49        17.0557   23.0183   13.6484 H           1 ROC       0.0254
     99 H50        16.9082   21.4710   14.5016 H           1 ROC       0.0254
    100 H51        15.9185   22.8471   14.9912 H           1 ROC       0.0254
@<TRIPOS>BOND
     1     2     1   2
     2     2     4   1
     3    13     2  am
     4     4     3  ar
     5     3    12  ar
     6     4     5  ar
     7     5     6  ar
     8     6     7  ar
     9     7     8  ar
    10    12     7  ar
    11     8     9  ar
    12    10     9  ar
    13    11    10  ar
    14    12    11  ar
    15    14    13   1
    16    15    14   1
    17    14    17   1
    18    15    16   2
    19    24    15  am
    20    17    18   1
    21    18    19   2
    22    18    20  am
    23    21    22   1
    24    23    21   1
    25    21    33   1
    26    23    24   1
    27    23    25   1
    28    25    26   1
    29    26    27  ar
    30    26    28  ar
    31    27    29  ar
    32    28    30  ar
    33    29    31  ar
    34    30    31  ar
    35    33    32   1
    36    32    34   1
    37    32    44   1
    38    34    35   1
    39    34    37   1
    40    35    36   2
    41    35    45  am
    42    37    38   1
    43    38    39   1
    44    38    43   1
    45    39    40   1
    46    40    41   1
    47    41    42   1
    48    42    43   1
    49    43    44   1
    50    45    46   1
    51    46    47   1
    52    46    48   1
    53    46    49   1
    54     5    50   1
    55     6    51   1
    56     8    52   1
    57     9    53   1
    58    10    54   1
    59    11    55   1
    60    13    56   1
    61    14    57   1
    62    17    58   1
    63    17    59   1
    64    20    60   1
    65    20    61   1
    66    21    62   1
    67    22    63   1
    68    23    64   1
    69    24    65   1
    70    25    66   1
    71    25    67   1
    72    27    68   1
    73    28    69   1
    74    29    70   1
    75    30    71   1
    76    31    72   1
    77    32    73   1
    78    33    74   1
    79    33    75   1
    80    34    76   1
    81    37    77   1
    82    37    78   1
    83    38    79   1
    84    39    80   1
    85    39    81   1
    86    40    82   1
    87    40    83   1
    88    41    84   1
    89    41    85   1
    90    42    86   1
    91    42    87   1
    92    43    88   1
    93    44    89   1
    94    44    90   1
    95    45    91   1
    96    47    92   1
    97    47    93   1
    98    47    94   1
    99    48    95   1
   100    48    96   1
   101    48    97   1
   102    49    98   1
   103    49    99   1
   104    49   100   1
@<TRIPOS>SUBSTRUCTURE
     1  ROC      2

