@<TRIPOS>MOLECULE
3cyx_ligand_084
   100   104
SMALL
GAST_HUCK
****
This file was generated by PARSER (from files_GN.cpp)

@<TRIPOS>ATOM
      1 O1          8.6529   13.8395   18.5840 O.2         1 ROC      -0.3762
      2 C1          8.1247   14.9373   18.7138 C.2         1 ROC       0.2293
      3 N1          6.2532   16.2528   19.3851 N.ar        1 ROC      -0.2737
      4 C2          6.7910   15.0296   19.1131 C.ar        1 ROC       0.1219
      5 C3          5.9532   13.8998   19.2742 C.ar        1 ROC      -0.0136
      6 C4          4.6248   14.0606   19.7096 C.ar        1 ROC      -0.0314
      7 C5          4.1127   15.3499   19.9686 C.ar        1 ROC       0.0097
      8 C6          2.7875   15.5665   20.4027 C.ar        1 ROC      -0.0444
      9 C7          2.3228   16.8779   20.6304 C.ar        1 ROC      -0.0546
     10 C8          3.1765   17.9770   20.4225 C.ar        1 ROC      -0.0545
     11 C9R         4.5016   17.7717   19.9999 C.ar        1 ROC      -0.0370
     12 C10         4.9728   16.4625   19.7784 C.ar        1 ROC       0.0527
     13 N2          8.8302   16.0404   18.4807 N.am        1 ROC      -0.2600
     14 C11        10.2125   16.1493   18.0782 C.3         1 ROC       0.1473
     15 C12        10.7883   17.4410   18.4618 C.2         1 ROC       0.2045
     16 O2         10.0974   18.2944   19.0075 O.2         1 ROC      -0.3943
     17 C13        10.3814   15.8370   16.5609 C.3         1 ROC       0.0773
     18 C14         9.6644   16.7401   15.6781 C.2         1 ROC       0.1780
     19 O3         10.2607   17.5765   15.0172 O.2         1 ROC      -0.3970
     20 N3          8.3583   16.6761   15.5428 N.am        1 ROC      -0.3007
     21 C15        13.2548   19.7260   17.3991 C.3         1 ROC       0.1194
     22 O4         12.5240   19.3260   16.2349 O.3         1 ROC      -0.3840
     23 C16        12.8291   18.8551   18.6510 C.3         1 ROC       0.0823
     24 N4         12.0782   17.6932   18.2358 N.am        1 ROC      -0.2772
     25 C17        13.9668   18.3961   19.6157 C.3         1 ROC       0.0066
     26 C18        13.5028   17.8629   20.9261 C.ar        1 ROC      -0.0408
     27 C19        13.7884   18.5500   22.1306 C.ar        1 ROC      -0.0603
     28 C20        12.7853   16.6436   21.0032 C.ar        1 ROC      -0.0603
     29 C21        13.3682   18.0375   23.3700 C.ar        1 ROC      -0.0686
     30 C22        12.3548   16.1375   22.2402 C.ar        1 ROC      -0.0686
     31 C23        12.6481   16.8313   23.4274 C.ar        1 ROC      -0.0687
     32 N5         15.3716   21.2624   17.0734 N.4         1 ROC       0.2562
     33 C24        14.7732   19.8756   17.0039 C.3         1 ROC      -0.0008
     34 C25        14.8059   22.2842   16.1100 C.3         1 ROC       0.0688
     35 C26        14.8480   21.8063   14.7226 C.2         1 ROC       0.2251
     36 O5         15.8825   21.9434   14.0813 O.2         1 ROC      -0.3909
     37 C27        15.5414   23.6621   16.2188 C.3         1 ROC       0.0113
     38 C28        15.6419   24.1835   17.6836 C.3         1 ROC      -0.0261
     39 C29        16.4415   25.5176   17.8212 C.3         1 ROC      -0.0494
     40 C30        17.9789   25.3480   17.6802 C.3         1 ROC      -0.0528
     41 C31        18.5346   24.2452   18.6169 C.3         1 ROC      -0.0526
     42 C32        17.7733   22.9044   18.4460 C.3         1 ROC      -0.0451
     43 C33        16.2352   23.0947   18.6353 C.3         1 ROC       0.0024
     44 C34        15.4446   21.7655   18.4877 C.3         1 ROC      -0.0266
     45 N6         13.8534   21.0617   14.2470 N.am        1 ROC      -0.2771
     46 C35        13.7738   20.3284   13.0000 C.3         1 ROC       0.0448
     47 C36        14.7835   19.1372   12.9350 C.3         1 ROC      -0.0396
     48 C37        13.9926   21.2922   11.7966 C.3         1 ROC      -0.0396
     49 C38        12.3349   19.7303   12.9116 C.3         1 ROC      -0.0396
     50 H1          6.3014   12.9555   19.0900 H           1 ROC       0.0729
     51 H2          4.0357   13.2340   19.8291 H           1 ROC       0.0774
     52 H3          2.1532   14.7786   20.5549 H           1 ROC       0.0657
     53 H4          1.3634   17.0311   20.9475 H           1 ROC       0.0652
     54 H5          2.8349   18.9278   20.5838 H           1 ROC       0.0657
     55 H6          5.1142   18.5774   19.8509 H           1 ROC       0.0653
     56 H7          8.3431   16.8738   18.5542 H           1 ROC       0.1882
     57 H8         10.7793   15.3960   18.6354 H           1 ROC       0.0826
     58 H9         10.0438   14.8169   16.3646 H           1 ROC       0.0551
     59 H10        11.4455   15.8573   16.3155 H           1 ROC       0.0551
     60 H11         7.9028   17.2827   14.9346 H           1 ROC       0.1814
     61 H12         7.8478   16.0035   16.0226 H           1 ROC       0.1814
     62 H13        12.8704   20.7302   17.5881 H           1 ROC       0.0672
     63 H14        12.9339   18.4785   15.9513 H           1 ROC       0.2101
     64 H15        12.1925   19.5053   19.2622 H           1 ROC       0.0606
     65 H16        12.5733   17.0326   17.7215 H           1 ROC       0.1857
     66 H17        14.6116   19.2566   19.8046 H           1 ROC       0.0449
     67 H18        14.5845   17.6363   19.1245 H           1 ROC       0.0449
     68 H19        14.3108   19.4308   22.1185 H           1 ROC       0.0557
     69 H20        12.5812   16.1075   20.1595 H           1 ROC       0.0557
     70 H21        13.5854   18.5389   24.2325 H           1 ROC       0.0599
     71 H22        11.8336   15.2597   22.2783 H           1 ROC       0.0599
     72 H23        12.3406   16.4648   24.3297 H           1 ROC       0.0559
     73 H24        16.3461   21.1423   16.7876 H           1 ROC       0.2057
     74 H25        14.9161   19.4972   15.9938 H           1 ROC       0.0841
     75 H26        15.4062   19.2192   17.5896 H           1 ROC       0.0841
     76 H27        13.7645   22.4777   16.3851 H           1 ROC       0.1100
     77 H28        15.0045   24.4012   15.6147 H           1 ROC       0.0348
     78 H29        16.5501   23.5759   15.8080 H           1 ROC       0.0348
     79 H30        14.6173   24.3976   18.0115 H           1 ROC       0.0309
     80 H31        16.2311   25.9434   18.8068 H           1 ROC       0.0268
     81 H32        16.0958   26.2394   17.0782 H           1 ROC       0.0268
     82 H33        18.4683   26.2966   17.9185 H           1 ROC       0.0265
     83 H34        18.2266   25.1022   16.6445 H           1 ROC       0.0265
     84 H35        18.4525   24.5773   19.6561 H           1 ROC       0.0265
     85 H36        19.5941   24.0871   18.3996 H           1 ROC       0.0265
     86 H37        18.1487   22.1954   19.1887 H           1 ROC       0.0270
     87 H38        17.9912   22.4914   17.4578 H           1 ROC       0.0270
     88 H39        16.0853   23.4429   19.6645 H           1 ROC       0.0355
     89 H40        15.9262   21.0212   19.1263 H           1 ROC       0.0818
     90 H41        14.4398   21.9276   18.8861 H           1 ROC       0.0818
     91 H42        13.0861   20.9685   14.8350 H           1 ROC       0.1859
     92 H43        14.6005   18.5223   12.0516 H           1 ROC       0.0254
     93 H44        14.6922   18.5014   13.8189 H           1 ROC       0.0254
     94 H45        15.8097   19.4965   12.8728 H           1 ROC       0.0254
     95 H46        13.8121   20.7668   10.8571 H           1 ROC       0.0254
     96 H47        15.0132   21.6786   11.7771 H           1 ROC       0.0254
     97 H48        13.3076   22.1403   11.8585 H           1 ROC       0.0254
     98 H49        12.1720   19.2415   11.9476 H           1 ROC       0.0254
     99 H50        11.5816   20.5116   13.0325 H           1 ROC       0.0254
    100 H51        12.1796   18.9837   13.6918 H           1 ROC       0.0254
@<TRIPOS>BOND
     1     2     1   2
     2     2     4   1
     3    13     2  am
     4     4     3  ar
     5     3    12  ar
     6     4     5  ar
     7     5     6  ar
     8     6     7  ar
     9     7     8  ar
    10    12     7  ar
    11     8     9  ar
    12    10     9  ar
    13    11    10  ar
    14    12    11  ar
    15    14    13   1
    16    15    14   1
    17    14    17   1
    18    15    16   2
    19    24    15  am
    20    17    18   1
    21    18    19   2
    22    18    20  am
    23    21    22   1
    24    23    21   1
    25    21    33   1
    26    23    24   1
    27    23    25   1
    28    25    26   1
    29    26    27  ar
    30    26    28  ar
    31    27    29  ar
    32    28    30  ar
    33    29    31  ar
    34    30    31  ar
    35    33    32   1
    36    32    34   1
    37    32    44   1
    38    34    35   1
    39    34    37   1
    40    35    36   2
    41    35    45  am
    42    37    38   1
    43    38    39   1
    44    38    43   1
    45    39    40   1
    46    40    41   1
    47    41    42   1
    48    42    43   1
    49    43    44   1
    50    45    46   1
    51    46    47   1
    52    46    48   1
    53    46    49   1
    54     5    50   1
    55     6    51   1
    56     8    52   1
    57     9    53   1
    58    10    54   1
    59    11    55   1
    60    13    56   1
    61    14    57   1
    62    17    58   1
    63    17    59   1
    64    20    60   1
    65    20    61   1
    66    21    62   1
    67    22    63   1
    68    23    64   1
    69    24    65   1
    70    25    66   1
    71    25    67   1
    72    27    68   1
    73    28    69   1
    74    29    70   1
    75    30    71   1
    76    31    72   1
    77    32    73   1
    78    33    74   1
    79    33    75   1
    80    34    76   1
    81    37    77   1
    82    37    78   1
    83    38    79   1
    84    39    80   1
    85    39    81   1
    86    40    82   1
    87    40    83   1
    88    41    84   1
    89    41    85   1
    90    42    86   1
    91    42    87   1
    92    43    88   1
    93    44    89   1
    94    44    90   1
    95    45    91   1
    96    47    92   1
    97    47    93   1
    98    47    94   1
    99    48    95   1
   100    48    96   1
   101    48    97   1
   102    49    98   1
   103    49    99   1
   104    49   100   1
@<TRIPOS>SUBSTRUCTURE
     1  ROC      2

