@<TRIPOS>MOLECULE
3cyx_ligand_069
   100   104
SMALL
GAST_HUCK
****
This file was generated by PARSER (from files_GN.cpp)

@<TRIPOS>ATOM
      1 O1         12.1182   18.1634   14.0308 O.2         1 ROC      -0.3762
      2 C1         11.5480   17.6915   15.0071 C.2         1 ROC       0.2293
      3 N1         10.6883   15.8104   16.1835 N.ar        1 ROC      -0.2737
      4 C2         11.3397   16.3163   15.0980 C.ar        1 ROC       0.1219
      5 C3         11.7682   15.4028   14.1046 C.ar        1 ROC      -0.0136
      6 C4         11.5116   14.0277   14.2546 C.ar        1 ROC      -0.0314
      7 C5         10.8370   13.5505   15.3970 C.ar        1 ROC       0.0097
      8 C6         10.5574   12.1797   15.5910 C.ar        1 ROC      -0.0444
      9 C7          9.8755   11.7550   16.7468 C.ar        1 ROC      -0.0546
     10 C8          9.4694   12.6933   17.7153 C.ar        1 ROC      -0.0545
     11 C9R         9.7427   14.0609   17.5308 C.ar        1 ROC      -0.0370
     12 C10        10.4205   14.4936   16.3742 C.ar        1 ROC       0.0527
     13 N2         11.1218   18.4958   15.9767 N.am        1 ROC      -0.2600
     14 C11        11.2284   19.9275   16.0472 C.3         1 ROC       0.1473
     15 C12        12.1893   20.2416   17.0974 C.2         1 ROC       0.2045
     16 O2         11.8127   20.4182   18.2557 O.2         1 ROC      -0.3943
     17 C13         9.8147   20.5528   16.2648 C.3         1 ROC       0.0773
     18 C14         8.9546   20.4537   15.0986 C.2         1 ROC       0.1780
     19 O3          9.1283   21.1826   14.1334 O.2         1 ROC      -0.3970
     20 N3          7.9542   19.5988   15.0463 N.am        1 ROC      -0.3007
     21 C15        15.7236   21.2611   16.7634 C.3         1 ROC       0.1194
     22 O4         17.0131   20.6450   16.8871 O.3         1 ROC      -0.3840
     23 C16        14.6036   20.5593   17.6374 C.3         1 ROC       0.0823
     24 N4         13.4795   20.2327   16.7884 N.am        1 ROC      -0.2772
     25 C17        15.0921   19.2635   18.3631 C.3         1 ROC       0.0066
     26 C18        14.2107   18.7992   19.4663 C.ar        1 ROC      -0.0408
     27 C19        13.7021   17.4749   19.5065 C.ar        1 ROC      -0.0603
     28 C20        13.9183   19.6728   20.5398 C.ar        1 ROC      -0.0603
     29 C21        12.9219   17.0375   20.5970 C.ar        1 ROC      -0.0686
     30 C22        13.1455   19.2338   21.6355 C.ar        1 ROC      -0.0686
     31 C23        12.6437   17.9133   21.6611 C.ar        1 ROC      -0.0687
     32 N5         16.8877   23.5939   16.3243 N.4         1 ROC       0.2562
     33 C24        15.8429   22.7920   17.0587 C.3         1 ROC      -0.0008
     34 C25        18.3351   23.2124   16.5223 C.3         1 ROC       0.0688
     35 C26        18.7015   22.9747   17.9211 C.2         1 ROC       0.2251
     36 O5         19.0418   21.8414   18.2215 O.2         1 ROC      -0.3909
     37 C27        19.2684   24.3118   15.9149 C.3         1 ROC       0.0113
     38 C28        18.9583   24.5651   14.4070 C.3         1 ROC      -0.0261
     39 C29        19.8475   25.6860   13.7722 C.3         1 ROC      -0.0494
     40 C30        19.4045   27.1218   14.1572 C.3         1 ROC      -0.0528
     41 C31        17.8962   27.3457   13.8757 C.3         1 ROC      -0.0526
     42 C32        17.0194   26.2760   14.5770 C.3         1 ROC      -0.0451
     43 C33        17.4352   24.8302   14.1634 C.3         1 ROC       0.0024
     44 C34        16.5612   23.7480   14.8660 C.3         1 ROC      -0.0266
     45 N6         18.6286   23.9730   18.7987 N.am        1 ROC      -0.2771
     46 C35        18.9918   24.0462   20.1978 C.3         1 ROC       0.0448
     47 C36        20.0217   25.2070   20.2912 C.3         1 ROC      -0.0396
     48 C37        19.6198   22.7659   20.8465 C.3         1 ROC      -0.0396
     49 C38        17.6905   24.4075   20.9745 C.3         1 ROC      -0.0396
     50 H1         12.2573   15.7248   13.2656 H           1 ROC       0.0729
     51 H2         11.8193   13.3806   13.5254 H           1 ROC       0.0774
     52 H3         10.8483   11.4850   14.8994 H           1 ROC       0.0657
     53 H4          9.6739   10.7630   16.8851 H           1 ROC       0.0652
     54 H5          8.9794   12.3804   18.5562 H           1 ROC       0.0657
     55 H6          9.4430   14.7386   18.2371 H           1 ROC       0.0653
     56 H7         10.6875   18.0688   16.7327 H           1 ROC       0.1882
     57 H8         11.6181   20.3519   15.1143 H           1 ROC       0.0826
     58 H9          9.9203   21.6137   16.5076 H           1 ROC       0.0551
     59 H10         9.3432   20.0686   17.1260 H           1 ROC       0.0551
     60 H11         7.3916   19.5570   14.2580 H           1 ROC       0.1814
     61 H12         7.7681   19.0147   15.7947 H           1 ROC       0.1814
     62 H13        15.4666   21.1686   15.7004 H           1 ROC       0.0672
     63 H14        17.2499   20.7648   17.8279 H           1 ROC       0.2101
     64 H15        14.2638   21.2540   18.4258 H           1 ROC       0.0606
     65 H16        13.6938   20.0189   15.8614 H           1 ROC       0.1857
     66 H17        16.0690   19.4377   18.8224 H           1 ROC       0.0449
     67 H18        15.2278   18.4677   17.6229 H           1 ROC       0.0449
     68 H19        13.8934   16.8195   18.7411 H           1 ROC       0.0557
     69 H20        14.2864   20.6345   20.5364 H           1 ROC       0.0557
     70 H21        12.5797   16.0702   20.6262 H           1 ROC       0.0599
     71 H22        12.9451   19.8706   22.4122 H           1 ROC       0.0599
     72 H23        12.0882   17.5978   22.4613 H           1 ROC       0.0559
     73 H24        16.8080   24.5384   16.7102 H           1 ROC       0.2057
     74 H25        15.9993   22.9159   18.1300 H           1 ROC       0.0841
     75 H26        14.8707   23.2617   16.8543 H           1 ROC       0.0841
     76 H27        18.5320   22.2982   15.9447 H           1 ROC       0.1100
     77 H28        20.3112   23.9933   16.0073 H           1 ROC       0.0348
     78 H29        19.1563   25.2486   16.4691 H           1 ROC       0.0348
     79 H30        19.2191   23.6438   13.8777 H           1 ROC       0.0309
     80 H31        19.7981   25.5950   12.6792 H           1 ROC       0.0268
     81 H32        20.8952   25.5440   14.0628 H           1 ROC       0.0268
     82 H33        19.9860   27.8514   13.5791 H           1 ROC       0.0265
     83 H34        19.6079   27.3028   15.2184 H           1 ROC       0.0265
     84 H35        17.7157   27.3106   12.7943 H           1 ROC       0.0265
     85 H36        17.6092   28.3395   14.2288 H           1 ROC       0.0265
     86 H37        15.9761   26.4465   14.3015 H           1 ROC       0.0270
     87 H38        17.1026   26.3983   15.6626 H           1 ROC       0.0270
     88 H39        17.2505   24.7423   13.0830 H           1 ROC       0.0355
     89 H40        15.5102   24.0268   14.7303 H           1 ROC       0.0818
     90 H41        16.7158   22.7985   14.3447 H           1 ROC       0.0818
     91 H42        18.2869   24.8086   18.4305 H           1 ROC       0.1859
     92 H43        20.3035   25.4021   21.3271 H           1 ROC       0.0254
     93 H44        19.6143   26.1311   19.8742 H           1 ROC       0.0254
     94 H45        20.9273   24.9609   19.7315 H           1 ROC       0.0254
     95 H46        19.8946   22.9584   21.8876 H           1 ROC       0.0254
     96 H47        20.5229   22.4637   20.3076 H           1 ROC       0.0254
     97 H48        18.9085   21.9361   20.8344 H           1 ROC       0.0254
     98 H49        17.9117   24.5922   22.0284 H           1 ROC       0.0254
     99 H50        16.9726   23.5881   20.9102 H           1 ROC       0.0254
    100 H51        17.2221   25.3033   20.5604 H           1 ROC       0.0254
@<TRIPOS>BOND
     1     2     1   2
     2     2     4   1
     3    13     2  am
     4     4     3  ar
     5     3    12  ar
     6     4     5  ar
     7     5     6  ar
     8     6     7  ar
     9     7     8  ar
    10    12     7  ar
    11     8     9  ar
    12    10     9  ar
    13    11    10  ar
    14    12    11  ar
    15    14    13   1
    16    15    14   1
    17    14    17   1
    18    15    16   2
    19    24    15  am
    20    17    18   1
    21    18    19   2
    22    18    20  am
    23    21    22   1
    24    23    21   1
    25    21    33   1
    26    23    24   1
    27    23    25   1
    28    25    26   1
    29    26    27  ar
    30    26    28  ar
    31    27    29  ar
    32    28    30  ar
    33    29    31  ar
    34    30    31  ar
    35    33    32   1
    36    32    34   1
    37    32    44   1
    38    34    35   1
    39    34    37   1
    40    35    36   2
    41    35    45  am
    42    37    38   1
    43    38    39   1
    44    38    43   1
    45    39    40   1
    46    40    41   1
    47    41    42   1
    48    42    43   1
    49    43    44   1
    50    45    46   1
    51    46    47   1
    52    46    48   1
    53    46    49   1
    54     5    50   1
    55     6    51   1
    56     8    52   1
    57     9    53   1
    58    10    54   1
    59    11    55   1
    60    13    56   1
    61    14    57   1
    62    17    58   1
    63    17    59   1
    64    20    60   1
    65    20    61   1
    66    21    62   1
    67    22    63   1
    68    23    64   1
    69    24    65   1
    70    25    66   1
    71    25    67   1
    72    27    68   1
    73    28    69   1
    74    29    70   1
    75    30    71   1
    76    31    72   1
    77    32    73   1
    78    33    74   1
    79    33    75   1
    80    34    76   1
    81    37    77   1
    82    37    78   1
    83    38    79   1
    84    39    80   1
    85    39    81   1
    86    40    82   1
    87    40    83   1
    88    41    84   1
    89    41    85   1
    90    42    86   1
    91    42    87   1
    92    43    88   1
    93    44    89   1
    94    44    90   1
    95    45    91   1
    96    47    92   1
    97    47    93   1
    98    47    94   1
    99    48    95   1
   100    48    96   1
   101    48    97   1
   102    49    98   1
   103    49    99   1
   104    49   100   1
@<TRIPOS>SUBSTRUCTURE
     1  ROC      2

