@<TRIPOS>MOLECULE
3d4z_ligand_032
    26    27
SMALL
GAST_HUCK
****
This file was generated by PARSER (from files_GN.cpp)

@<TRIPOS>ATOM
      1 C1         25.5326   65.0470   10.2185 C.2         1 GIM       0.1465
      2 C2         24.0566   65.1129   10.1347 C.3         1 GIM       0.1586
      3 N10        26.3683   65.0001    9.1569 N.pl3       1 GIM      -0.2404
      4 C3         23.5565   65.4172    8.6940 C.3         1 GIM       0.1253
      5 C4         24.4515   64.7546    7.5926 C.3         1 GIM       0.1183
      6 C5         25.9687   65.0613    7.7704 C.3         1 GIM       0.1196
      7 C6         26.3752   66.4279    7.1524 C.3         1 GIM       0.0773
      8 C7         27.5186   64.8636   11.0399 C.2         1 GIM      -0.0364
      9 C8         27.6101   64.8779    9.6555 C.2         1 GIM       0.0285
     10 N1         26.2177   64.9595   11.3674 N.2         1 GIM      -0.3367
     11 O3         23.5081   66.8315    8.5136 O.3         1 GIM      -0.3839
     12 O2         23.5516   63.8650   10.5979 O.3         1 GIM      -0.3699
     13 O4         24.2669   63.3377    7.6114 O.3         1 GIM      -0.3858
     14 O6         27.7848   66.5687    7.0758 O.3         1 GIM      -0.3918
     15 H1         23.7053   65.8898   10.8149 H           1 GIM       0.0858
     16 H2         22.5353   65.0439    8.5834 H           1 GIM       0.0675
     17 H3         24.1091   65.0833    6.6053 H           1 GIM       0.0654
     18 H4         26.5169   64.3028    7.2131 H           1 GIM       0.0704
     19 H5         25.9707   67.2377    7.7706 H           1 GIM       0.0589
     20 H6         25.9792   66.5265    6.1368 H           1 GIM       0.0589
     21 H7         28.2911   64.7780   11.6972 H           1 GIM       0.0408
     22 H8         28.4843   64.7898    9.1234 H           1 GIM       0.0796
     23 H9         22.5627   67.0494    8.3640 H           1 GIM       0.2103
     24 H10        22.5794   63.9385   10.5412 H           1 GIM       0.2138
     25 H11        23.3540   63.1966    7.2922 H           1 GIM       0.2100
     26 H12        27.9438   67.5144    7.2641 H           1 GIM       0.2095
@<TRIPOS>BOND
     1     1     2   1
     2     1     3   1
     3     1    10   2
     4     2     4   1
     5     2    12   1
     6     3     6   1
     7     3     9   1
     8     4     5   1
     9     4    11   1
    10     5     6   1
    11     5    13   1
    12     6     7   1
    13     7    14   1
    14     9     8   2
    15     8    10   1
    16     2    15   1
    17     4    16   1
    18     5    17   1
    19     6    18   1
    20     7    19   1
    21     7    20   1
    22     8    21   1
    23     9    22   1
    24    11    23   1
    25    12    24   1
    26    13    25   1
    27    14    26   1
@<TRIPOS>SUBSTRUCTURE
     1  GIM      1

