@<TRIPOS>MOLECULE
3d4z_ligand_042
    26    27
SMALL
GAST_HUCK
****
This file was generated by PARSER (from files_GN.cpp)

@<TRIPOS>ATOM
      1 C1         25.7606   62.7548   12.6977 C.2         1 GIM       0.1465
      2 C2         24.3299   62.9310   13.0271 C.3         1 GIM       0.1586
      3 N10        26.2936   62.9386   11.4689 N.pl3       1 GIM      -0.2404
      4 C3         23.5475   63.6295   11.8759 C.3         1 GIM       0.1253
      5 C4         24.0267   63.1953   10.4572 C.3         1 GIM       0.1183
      6 C5         25.5814   63.3220   10.2728 C.3         1 GIM       0.1196
      7 C6         26.0335   64.7239    9.7618 C.3         1 GIM       0.0773
      8 C7         27.8723   62.3262   12.8763 C.2         1 GIM      -0.0364
      9 C8         27.6066   62.6705   11.5579 C.2         1 GIM       0.0285
     10 N1         26.7245   62.3795   13.5626 N.2         1 GIM      -0.3367
     11 O3         23.6583   65.0461   12.0278 O.3         1 GIM      -0.3839
     12 O2         23.7403   61.6609   13.3075 O.3         1 GIM      -0.3699
     13 O4         23.6187   61.8493   10.2148 O.3         1 GIM      -0.3858
     14 O6         26.3579   64.6623    8.3771 O.3         1 GIM      -0.3918
     15 H1         24.2494   63.5370   13.9333 H           1 GIM       0.0858
     16 H2         22.4828   63.3946   11.9839 H           1 GIM       0.0675
     17 H3         23.5113   63.8013    9.7080 H           1 GIM       0.0654
     18 H4         25.8598   62.5892    9.5098 H           1 GIM       0.0704
     19 H5         26.9260   65.0716   10.2800 H           1 GIM       0.0589
     20 H6         25.2641   65.4781    9.9082 H           1 GIM       0.0589
     21 H7         28.7879   62.0746   13.2578 H           1 GIM       0.0408
     22 H8         28.2975   62.7093   10.8016 H           1 GIM       0.0796
     23 H9         22.9929   65.4220   11.4147 H           1 GIM       0.2103
     24 H10        23.9836   61.4556   14.2364 H           1 GIM       0.2138
     25 H11        24.0734   61.3037   10.8887 H           1 GIM       0.2100
     26 H12        25.8339   65.3624    7.9288 H           1 GIM       0.2095
@<TRIPOS>BOND
     1     1     2   1
     2     1     3   1
     3     1    10   2
     4     2     4   1
     5     2    12   1
     6     3     6   1
     7     3     9   1
     8     4     5   1
     9     4    11   1
    10     5     6   1
    11     5    13   1
    12     6     7   1
    13     7    14   1
    14     9     8   2
    15     8    10   1
    16     2    15   1
    17     4    16   1
    18     5    17   1
    19     6    18   1
    20     7    19   1
    21     7    20   1
    22     8    21   1
    23     9    22   1
    24    11    23   1
    25    12    24   1
    26    13    25   1
    27    14    26   1
@<TRIPOS>SUBSTRUCTURE
     1  GIM      1

