@<TRIPOS>MOLECULE
3d4z_ligand_003
    26    27
SMALL
GAST_HUCK
****
This file was generated by PARSER (from files_GN.cpp)

@<TRIPOS>ATOM
      1 C1         28.8636   65.4645    8.6495 C.2         1 GIM       0.1465
      2 C2         27.7223   66.0071    7.8848 C.3         1 GIM       0.1586
      3 N10        30.0444   65.0832    8.1030 N.pl3       1 GIM      -0.2404
      4 C3         28.1246   66.3777    6.4275 C.3         1 GIM       0.1253
      5 C4         29.1047   65.3393    5.8101 C.3         1 GIM       0.1183
      6 C5         30.3876   65.1534    6.6998 C.3         1 GIM       0.1196
      7 C6         31.4647   66.2552    6.4442 C.3         1 GIM       0.0773
      8 C7         30.0677   64.7432   10.2789 C.2         1 GIM      -0.0364
      9 C8         30.7966   64.6182    9.1131 C.2         1 GIM       0.0285
     10 N1         28.8677   65.2655    9.9708 N.2         1 GIM      -0.3367
     11 O3         28.7359   67.6632    6.3900 O.3         1 GIM      -0.3839
     12 O2         26.6947   65.0217    7.9063 O.3         1 GIM      -0.3699
     13 O4         28.4105   64.0952    5.6728 O.3         1 GIM      -0.3858
     14 O6         32.7738   65.7609    6.7001 O.3         1 GIM      -0.3918
     15 H1         27.3440   66.8938    8.3957 H           1 GIM       0.0858
     16 H2         27.2293   66.4390    5.8028 H           1 GIM       0.0675
     17 H3         29.3761   65.6584    4.8018 H           1 GIM       0.0654
     18 H4         30.8280   64.1964    6.4064 H           1 GIM       0.0704
     19 H5         31.2777   67.1328    7.0690 H           1 GIM       0.0589
     20 H6         31.4365   66.5913    5.4091 H           1 GIM       0.0589
     21 H7         30.3694   64.4914   11.2199 H           1 GIM       0.0408
     22 H8         31.7501   64.2449    9.0513 H           1 GIM       0.0796
     23 H9         28.0455   68.2798    6.6991 H           1 GIM       0.2103
     24 H10        25.8913   65.4739    7.5728 H           1 GIM       0.2138
     25 H11        29.0095   63.5239    5.1491 H           1 GIM       0.2100
     26 H12        33.3641   66.4168    6.2701 H           1 GIM       0.2095
@<TRIPOS>BOND
     1     1     2   1
     2     1     3   1
     3     1    10   2
     4     2     4   1
     5     2    12   1
     6     3     6   1
     7     3     9   1
     8     4     5   1
     9     4    11   1
    10     5     6   1
    11     5    13   1
    12     6     7   1
    13     7    14   1
    14     9     8   2
    15     8    10   1
    16     2    15   1
    17     4    16   1
    18     5    17   1
    19     6    18   1
    20     7    19   1
    21     7    20   1
    22     8    21   1
    23     9    22   1
    24    11    23   1
    25    12    24   1
    26    13    25   1
    27    14    26   1
@<TRIPOS>SUBSTRUCTURE
     1  GIM      1

