@<TRIPOS>MOLECULE
3d4z_ligand_020
    26    27
SMALL
GAST_HUCK
****
This file was generated by PARSER (from files_GN.cpp)

@<TRIPOS>ATOM
      1 C1         21.3559   66.1305    9.9216 C.2         1 GIM       0.1465
      2 C2         21.8084   66.2807    8.5205 C.3         1 GIM       0.1586
      3 N10        22.0582   65.4853   10.8825 N.pl3       1 GIM      -0.2404
      4 C3         23.3160   65.9223    8.3447 C.3         1 GIM       0.1253
      5 C4         23.7331   64.7041    9.2087 C.3         1 GIM       0.1183
      6 C5         23.3713   64.9079   10.7173 C.3         1 GIM       0.1196
      7 C6         24.4229   65.7287   11.5338 C.3         1 GIM       0.0773
      8 C7         20.1093   66.1302   11.6837 C.2         1 GIM      -0.0364
      9 C8         21.3022   65.4857   11.9914 C.2         1 GIM       0.0285
     10 N1         20.1588   66.5139   10.4008 N.2         1 GIM      -0.3367
     11 O3         24.1253   67.0556    8.6621 O.3         1 GIM      -0.3839
     12 O2         20.9572   65.4520    7.7269 O.3         1 GIM      -0.3699
     13 O4         23.0462   63.5476    8.7261 O.3         1 GIM      -0.3858
     14 O6         24.2658   67.1413   11.3840 O.3         1 GIM      -0.3918
     15 H1         21.6365   67.3172    8.2022 H           1 GIM       0.0858
     16 H2         23.5189   65.7036    7.2938 H           1 GIM       0.0675
     17 H3         24.7980   64.5134    9.0910 H           1 GIM       0.0654
     18 H4         23.3537   63.9140   11.1692 H           1 GIM       0.0704
     19 H5         25.4353   65.4644   11.2322 H           1 GIM       0.0589
     20 H6         24.3174   65.4940   12.6046 H           1 GIM       0.0589
     21 H7         19.3220   66.2674   12.3196 H           1 GIM       0.0408
     22 H8         21.5353   65.0704   12.8970 H           1 GIM       0.0796
     23 H9         23.6035   67.8623    8.4331 H           1 GIM       0.2103
     24 H10        21.5403   64.9471    7.1234 H           1 GIM       0.2138
     25 H11        22.9926   63.6158    7.7475 H           1 GIM       0.2100
     26 H12        24.9713   67.5452   11.9419 H           1 GIM       0.2095
@<TRIPOS>BOND
     1     1     2   1
     2     1     3   1
     3     1    10   2
     4     2     4   1
     5     2    12   1
     6     3     6   1
     7     3     9   1
     8     4     5   1
     9     4    11   1
    10     5     6   1
    11     5    13   1
    12     6     7   1
    13     7    14   1
    14     9     8   2
    15     8    10   1
    16     2    15   1
    17     4    16   1
    18     5    17   1
    19     6    18   1
    20     7    19   1
    21     7    20   1
    22     8    21   1
    23     9    22   1
    24    11    23   1
    25    12    24   1
    26    13    25   1
    27    14    26   1
@<TRIPOS>SUBSTRUCTURE
     1  GIM      1

