@<TRIPOS>MOLECULE
3d4z_ligand_008
    26    27
SMALL
GAST_HUCK
****
This file was generated by PARSER (from files_GN.cpp)

@<TRIPOS>ATOM
      1 C1         28.5471   65.2264    8.8743 C.2         1 GIM       0.1465
      2 C2         29.1685   64.5127   10.0016 C.3         1 GIM       0.1586
      3 N10        29.1018   66.2757    8.2209 N.pl3       1 GIM      -0.2404
      4 C3         30.6583   64.9284   10.2029 C.3         1 GIM       0.1253
      5 C4         30.9034   66.4353    9.9208 C.3         1 GIM       0.1183
      6 C5         30.3842   66.8684    8.5031 C.3         1 GIM       0.1196
      7 C6         31.4126   66.5964    7.3592 C.3         1 GIM       0.0773
      8 C7         27.1091   65.8542    7.3713 C.2         1 GIM      -0.0364
      9 C8         28.2251   66.6757    7.2788 C.2         1 GIM       0.0285
     10 N1         27.3269   64.9716    8.3591 N.2         1 GIM      -0.3367
     11 O3         31.4997   64.1592    9.3484 O.3         1 GIM      -0.3839
     12 O2         28.4090   64.7640   11.1828 O.3         1 GIM      -0.3699
     13 O4         30.2501   67.1939   10.9491 O.3         1 GIM      -0.3858
     14 O6         31.2486   67.5422    6.3152 O.3         1 GIM      -0.3918
     15 H1         29.1103   63.4407    9.8153 H           1 GIM       0.0858
     16 H2         30.9568   64.7036   11.2219 H           1 GIM       0.0675
     17 H3         31.9707   66.6501   10.0274 H           1 GIM       0.0654
     18 H4         30.2457   67.9518    8.5586 H           1 GIM       0.0704
     19 H5         31.2745   65.6003    6.9477 H           1 GIM       0.0589
     20 H6         32.4277   66.6869    7.7172 H           1 GIM       0.0589
     21 H7         26.2660   65.9203    6.8076 H           1 GIM       0.0408
     22 H8         28.3326   67.4548    6.6289 H           1 GIM       0.0796
     23 H9         31.5452   63.2813    9.7773 H           1 GIM       0.2103
     24 H10        28.5474   65.7082   11.4032 H           1 GIM       0.2138
     25 H11        30.6745   66.9125   11.7918 H           1 GIM       0.2100
     26 H12        32.0601   67.4829    5.7609 H           1 GIM       0.2095
@<TRIPOS>BOND
     1     1     2   1
     2     1     3   1
     3     1    10   2
     4     2     4   1
     5     2    12   1
     6     3     6   1
     7     3     9   1
     8     4     5   1
     9     4    11   1
    10     5     6   1
    11     5    13   1
    12     6     7   1
    13     7    14   1
    14     9     8   2
    15     8    10   1
    16     2    15   1
    17     4    16   1
    18     5    17   1
    19     6    18   1
    20     7    19   1
    21     7    20   1
    22     8    21   1
    23     9    22   1
    24    11    23   1
    25    12    24   1
    26    13    25   1
    27    14    26   1
@<TRIPOS>SUBSTRUCTURE
     1  GIM      1

