@<TRIPOS>MOLECULE
3d4z_ligand_004
    26    27
SMALL
GAST_HUCK
****
This file was generated by PARSER (from files_GN.cpp)

@<TRIPOS>ATOM
      1 C1         25.6636   64.8692    9.1195 C.2         1 GIM       0.1465
      2 C2         24.7258   64.1811    8.2086 C.3         1 GIM       0.1586
      3 N10        26.2881   64.2826   10.1640 N.pl3       1 GIM      -0.2404
      4 C3         24.2151   62.8566    8.8450 C.3         1 GIM       0.1253
      5 C4         25.3713   62.0429    9.4954 C.3         1 GIM       0.1183
      6 C5         26.1958   62.8869   10.5319 C.3         1 GIM       0.1196
      7 C6         27.6136   62.2765   10.7972 C.3         1 GIM       0.0773
      8 C7         26.8134   66.4312   10.0694 C.2         1 GIM      -0.0364
      9 C8         26.9906   65.2569   10.7798 C.2         1 GIM       0.0285
     10 N1         25.9838   66.1795    9.0466 N.2         1 GIM      -0.3367
     11 O3         23.5713   62.0503    7.8557 O.3         1 GIM      -0.3839
     12 O2         23.6246   65.0480    7.9310 O.3         1 GIM      -0.3699
     13 O4         24.8330   60.8946   10.1519 O.3         1 GIM      -0.3858
     14 O6         27.6241   60.8452   10.8115 O.3         1 GIM      -0.3918
     15 H1         25.2574   63.9861    7.2760 H           1 GIM       0.0858
     16 H2         23.4810   63.0858    9.6169 H           1 GIM       0.0675
     17 H3         26.0431   61.7045    8.7028 H           1 GIM       0.0654
     18 H4         25.6527   62.8655   11.4812 H           1 GIM       0.0704
     19 H5         27.9732   62.6058   11.7739 H           1 GIM       0.0589
     20 H6         28.3250   62.6228   10.0486 H           1 GIM       0.0589
     21 H7         27.2248   67.3416   10.2854 H           1 GIM       0.0408
     22 H8         27.5657   65.1545   11.6185 H           1 GIM       0.0796
     23 H9         22.8935   62.6284    7.4382 H           1 GIM       0.2103
     24 H10        23.1075   64.6018    7.2189 H           1 GIM       0.2138
     25 H11        24.5448   60.2644    9.4538 H           1 GIM       0.2100
     26 H12        27.7994   60.5992    9.8606 H           1 GIM       0.2095
@<TRIPOS>BOND
     1     1     2   1
     2     1     3   1
     3     1    10   2
     4     2     4   1
     5     2    12   1
     6     3     6   1
     7     3     9   1
     8     4     5   1
     9     4    11   1
    10     5     6   1
    11     5    13   1
    12     6     7   1
    13     7    14   1
    14     9     8   2
    15     8    10   1
    16     2    15   1
    17     4    16   1
    18     5    17   1
    19     6    18   1
    20     7    19   1
    21     7    20   1
    22     8    21   1
    23     9    22   1
    24    11    23   1
    25    12    24   1
    26    13    25   1
    27    14    26   1
@<TRIPOS>SUBSTRUCTURE
     1  GIM      1

