@<TRIPOS>MOLECULE
3d4z_ligand_044
    26    27
SMALL
GAST_HUCK
****
This file was generated by PARSER (from files_GN.cpp)

@<TRIPOS>ATOM
      1 C1         25.0884   63.6702   14.4194 C.2         1 GIM       0.1465
      2 C2         25.3835   64.1963   15.7715 C.3         1 GIM       0.1586
      3 N10        26.0304   63.4452   13.4709 N.pl3       1 GIM      -0.2404
      4 C3         26.7715   64.9011   15.7912 C.3         1 GIM       0.1253
      5 C4         27.8490   64.0400   15.0795 C.3         1 GIM       0.1183
      6 C5         27.4489   63.6717   13.6145 C.3         1 GIM       0.1196
      7 C6         28.3160   62.4865   13.0881 C.3         1 GIM       0.0773
      8 C7         24.0205   63.0700   12.6401 C.2         1 GIM      -0.0364
      9 C8         25.3750   63.1035   12.3463 C.2         1 GIM       0.0285
     10 N1         23.8616   63.4276   13.9221 N.2         1 GIM      -0.3367
     11 O3         27.1750   65.1721   17.1345 O.3         1 GIM      -0.3839
     12 O2         24.3653   65.1175   16.1614 O.3         1 GIM      -0.3699
     13 O4         29.1059   64.7155   15.0898 O.3         1 GIM      -0.3858
     14 O6         28.1824   61.2904   13.8595 O.3         1 GIM      -0.3918
     15 H1         25.3806   63.3659   16.4786 H           1 GIM       0.0858
     16 H2         26.6866   65.8651   15.2790 H           1 GIM       0.0675
     17 H3         27.9484   63.1197   15.6574 H           1 GIM       0.0654
     18 H4         27.6738   64.5411   12.9795 H           1 GIM       0.0704
     19 H5         29.3710   62.7798   13.1244 H           1 GIM       0.0589
     20 H6         28.0852   62.2683   12.0508 H           1 GIM       0.0589
     21 H7         23.2730   62.8509   11.9809 H           1 GIM       0.0408
     22 H8         25.7848   62.9254   11.4259 H           1 GIM       0.0796
     23 H9         27.4473   64.2976   17.5111 H           1 GIM       0.2103
     24 H10        24.6053   65.4065   17.0662 H           1 GIM       0.2138
     25 H11        29.3280   64.8305   16.0409 H           1 GIM       0.2100
     26 H12        27.2568   60.9896   13.7342 H           1 GIM       0.2095
@<TRIPOS>BOND
     1     1     2   1
     2     1     3   1
     3     1    10   2
     4     2     4   1
     5     2    12   1
     6     3     6   1
     7     3     9   1
     8     4     5   1
     9     4    11   1
    10     5     6   1
    11     5    13   1
    12     6     7   1
    13     7    14   1
    14     9     8   2
    15     8    10   1
    16     2    15   1
    17     4    16   1
    18     5    17   1
    19     6    18   1
    20     7    19   1
    21     7    20   1
    22     8    21   1
    23     9    22   1
    24    11    23   1
    25    12    24   1
    26    13    25   1
    27    14    26   1
@<TRIPOS>SUBSTRUCTURE
     1  GIM      1

