@<TRIPOS>MOLECULE
3d4z_ligand_010
    26    27
SMALL
GAST_HUCK
****
This file was generated by PARSER (from files_GN.cpp)

@<TRIPOS>ATOM
      1 C1         30.7274   66.0784    7.0134 C.2         1 GIM       0.1465
      2 C2         29.3228   66.3307    7.3719 C.3         1 GIM       0.1586
      3 N10        31.7338   65.9516    7.9047 N.pl3       1 GIM      -0.2404
      4 C3         29.2011   66.8290    8.8386 C.3         1 GIM       0.1253
      5 C4         30.0898   66.0057    9.7990 C.3         1 GIM       0.1183
      6 C5         31.5986   66.0074    9.3453 C.3         1 GIM       0.1196
      7 C6         32.4030   64.8603   10.0309 C.3         1 GIM       0.0773
      8 C7         32.5220   65.8157    5.8427 C.2         1 GIM      -0.0364
      9 C8         32.8701   65.8382    7.1874 C.2         1 GIM       0.0285
     10 N1         31.1940   65.9674    5.7573 N.2         1 GIM      -0.3367
     11 O3         27.8380   66.7656    9.2538 O.3         1 GIM      -0.3839
     12 O2         28.8173   67.3405    6.5115 O.3         1 GIM      -0.3699
     13 O4         29.9657   66.5511   11.1122 O.3         1 GIM      -0.3858
     14 O6         32.3215   63.6365    9.3003 O.3         1 GIM      -0.3918
     15 H1         28.7442   65.4197    7.2292 H           1 GIM       0.0858
     16 H2         29.5112   67.8713    8.8867 H           1 GIM       0.0675
     17 H3         29.7191   64.9769    9.8179 H           1 GIM       0.0654
     18 H4         32.0462   66.9559    9.6606 H           1 GIM       0.0704
     19 H5         32.0402   64.6889   11.0479 H           1 GIM       0.0589
     20 H6         33.4633   65.1397   10.0896 H           1 GIM       0.0589
     21 H7         33.1712   65.7156    5.0541 H           1 GIM       0.0408
     22 H8         33.8225   65.7506    7.5491 H           1 GIM       0.0796
     23 H9         27.7975   67.2413   10.1121 H           1 GIM       0.2103
     24 H10        27.9705   67.6433    6.9056 H           1 GIM       0.2138
     25 H11        30.5854   66.0482   11.6823 H           1 GIM       0.2100
     26 H12        31.6754   63.0833    9.7901 H           1 GIM       0.2095
@<TRIPOS>BOND
     1     1     2   1
     2     1     3   1
     3     1    10   2
     4     2     4   1
     5     2    12   1
     6     3     6   1
     7     3     9   1
     8     4     5   1
     9     4    11   1
    10     5     6   1
    11     5    13   1
    12     6     7   1
    13     7    14   1
    14     9     8   2
    15     8    10   1
    16     2    15   1
    17     4    16   1
    18     5    17   1
    19     6    18   1
    20     7    19   1
    21     7    20   1
    22     8    21   1
    23     9    22   1
    24    11    23   1
    25    12    24   1
    26    13    25   1
    27    14    26   1
@<TRIPOS>SUBSTRUCTURE
     1  GIM      1

