@<TRIPOS>MOLECULE
3d4z_ligand_030
    26    27
SMALL
GAST_HUCK
****
This file was generated by PARSER (from files_GN.cpp)

@<TRIPOS>ATOM
      1 C1         31.6743   66.2258    8.5006 C.2         1 GIM       0.1465
      2 C2         31.6054   66.0513    7.0322 C.3         1 GIM       0.1586
      3 N10        30.6020   66.3537    9.3124 N.pl3       1 GIM      -0.2404
      4 C3         30.1676   65.7007    6.5515 C.3         1 GIM       0.1253
      5 C4         29.0750   66.4600    7.3660 C.3         1 GIM       0.1183
      6 C5         29.2198   66.2938    8.9186 C.3         1 GIM       0.1196
      7 C6         28.5774   64.9978    9.4876 C.3         1 GIM       0.0773
      8 C7         32.4645   66.5337   10.4842 C.2         1 GIM      -0.0364
      9 C8         31.0757   66.5409   10.5538 C.2         1 GIM       0.0285
     10 N1         32.8133   66.3454    9.2071 N.2         1 GIM      -0.3367
     11 O3         29.9482   64.2962    6.6219 O.3         1 GIM      -0.3839
     12 O2         32.0454   67.2647    6.4252 O.3         1 GIM      -0.3699
     13 O4         29.2181   67.8408    7.0368 O.3         1 GIM      -0.3858
     14 O6         27.2576   64.7434    9.0121 O.3         1 GIM      -0.3918
     15 H1         32.2896   65.2557    6.7214 H           1 GIM       0.0858
     16 H2         30.0640   65.9702    5.4968 H           1 GIM       0.0675
     17 H3         28.0799   66.1578    7.0245 H           1 GIM       0.0654
     18 H4         28.7033   67.1315    9.3834 H           1 GIM       0.0704
     19 H5         28.5164   65.0642   10.5808 H           1 GIM       0.0589
     20 H6         29.1870   64.1260    9.2458 H           1 GIM       0.0589
     21 H7         33.1029   66.6670   11.2648 H           1 GIM       0.0408
     22 H8         30.5169   66.6758   11.4028 H           1 GIM       0.0796
     23 H9         30.2898   64.0276    7.5056 H           1 GIM       0.2103
     24 H10        33.0192   67.2862    6.5834 H           1 GIM       0.2138
     25 H11        28.5414   68.3027    7.5851 H           1 GIM       0.2100
     26 H12        26.7318   65.5347    9.2932 H           1 GIM       0.2095
@<TRIPOS>BOND
     1     1     2   1
     2     1     3   1
     3     1    10   2
     4     2     4   1
     5     2    12   1
     6     3     6   1
     7     3     9   1
     8     4     5   1
     9     4    11   1
    10     5     6   1
    11     5    13   1
    12     6     7   1
    13     7    14   1
    14     9     8   2
    15     8    10   1
    16     2    15   1
    17     4    16   1
    18     5    17   1
    19     6    18   1
    20     7    19   1
    21     7    20   1
    22     8    21   1
    23     9    22   1
    24    11    23   1
    25    12    24   1
    26    13    25   1
    27    14    26   1
@<TRIPOS>SUBSTRUCTURE
     1  GIM      1

