@<TRIPOS>MOLECULE
3d4z_ligand_031
    26    27
SMALL
GAST_HUCK
****
This file was generated by PARSER (from files_GN.cpp)

@<TRIPOS>ATOM
      1 C1         25.3946   62.4943    9.5731 C.2         1 GIM       0.1465
      2 C2         24.2353   63.2344    9.0333 C.3         1 GIM       0.1586
      3 N10        26.0938   62.8713   10.6683 N.pl3       1 GIM      -0.2404
      4 C3         24.2501   64.7035    9.5506 C.3         1 GIM       0.1253
      5 C4         24.4781   64.7510   11.0878 C.3         1 GIM       0.1183
      6 C5         25.7988   64.0124   11.5104 C.3         1 GIM       0.1196
      7 C6         25.7581   63.6211   13.0190 C.3         1 GIM       0.0773
      8 C7         27.0232   61.0898    9.7523 C.2         1 GIM      -0.0364
      9 C8         27.1416   62.0318   10.7638 C.2         1 GIM       0.0285
     10 N1         25.9450   61.3974    9.0206 N.2         1 GIM      -0.3367
     11 O3         23.0278   65.3610    9.2190 O.3         1 GIM      -0.3839
     12 O2         24.2744   63.2070    7.6068 O.3         1 GIM      -0.3699
     13 O4         24.5072   66.1096   11.5171 O.3         1 GIM      -0.3858
     14 O6         24.6933   62.7032   13.2851 O.3         1 GIM      -0.3918
     15 H1         23.3268   62.7233    9.3585 H           1 GIM       0.0858
     16 H2         25.0579   65.2504    9.0580 H           1 GIM       0.0675
     17 H3         23.6173   64.2742   11.5612 H           1 GIM       0.0654
     18 H4         26.6298   64.7131   11.3758 H           1 GIM       0.0704
     19 H5         25.6211   64.5110   13.6394 H           1 GIM       0.0589
     20 H6         26.7024   63.1507   13.3118 H           1 GIM       0.0589
     21 H7         27.6603   60.3104    9.5806 H           1 GIM       0.0408
     22 H8         27.8951   62.0601   11.4555 H           1 GIM       0.0796
     23 H9         22.3251   64.8533    9.6781 H           1 GIM       0.2103
     24 H10        23.4198   63.5793    7.3027 H           1 GIM       0.2138
     25 H11        24.5518   66.0691   12.4932 H           1 GIM       0.2100
     26 H12        24.7783   62.4682   14.2374 H           1 GIM       0.2095
@<TRIPOS>BOND
     1     1     2   1
     2     1     3   1
     3     1    10   2
     4     2     4   1
     5     2    12   1
     6     3     6   1
     7     3     9   1
     8     4     5   1
     9     4    11   1
    10     5     6   1
    11     5    13   1
    12     6     7   1
    13     7    14   1
    14     9     8   2
    15     8    10   1
    16     2    15   1
    17     4    16   1
    18     5    17   1
    19     6    18   1
    20     7    19   1
    21     7    20   1
    22     8    21   1
    23     9    22   1
    24    11    23   1
    25    12    24   1
    26    13    25   1
    27    14    26   1
@<TRIPOS>SUBSTRUCTURE
     1  GIM      1

