@<TRIPOS>MOLECULE
3d4z_ligand_033
    26    27
SMALL
GAST_HUCK
****
This file was generated by PARSER (from files_GN.cpp)

@<TRIPOS>ATOM
      1 C1         23.0566   64.9822   11.3845 C.2         1 GIM       0.1465
      2 C2         23.7725   64.4517   10.1986 C.3         1 GIM       0.1586
      3 N10        22.3830   66.1533   11.4146 N.pl3       1 GIM      -0.2404
      4 C3         23.4740   65.2890    8.9131 C.3         1 GIM       0.1253
      5 C4         23.2984   66.8003    9.2186 C.3         1 GIM       0.1183
      6 C5         22.2062   67.0582   10.3063 C.3         1 GIM       0.1196
      7 C6         20.7310   66.9586    9.8008 C.3         1 GIM       0.0773
      8 C7         22.2731   65.1688   13.3860 C.2         1 GIM      -0.0364
      9 C8         21.8809   66.2819   12.6574 C.2         1 GIM       0.0285
     10 N1         22.9929   64.3762   12.5835 N.2         1 GIM      -0.3367
     11 O3         22.2793   64.8214    8.2786 O.3         1 GIM      -0.3839
     12 O2         25.1698   64.4767   10.4806 O.3         1 GIM      -0.3699
     13 O4         24.5498   67.3263    9.6873 O.3         1 GIM      -0.3858
     14 O6         20.5295   67.4330    8.4691 O.3         1 GIM      -0.3918
     15 H1         23.4621   63.4175   10.0311 H           1 GIM       0.0858
     16 H2         24.2922   65.1577    8.1915 H           1 GIM       0.0675
     17 H3         23.0606   67.3448    8.3092 H           1 GIM       0.0654
     18 H4         22.3520   68.0858   10.6630 H           1 GIM       0.0704
     19 H5         20.0883   67.5310   10.4641 H           1 GIM       0.0589
     20 H6         20.3936   65.9174    9.8263 H           1 GIM       0.0589
     21 H7         22.0348   64.9740   14.3615 H           1 GIM       0.0408
     22 H8         21.3116   67.0545   13.0101 H           1 GIM       0.0796
     23 H9         22.5261   64.5974    7.3536 H           1 GIM       0.2103
     24 H10        25.3301   63.7020   11.0647 H           1 GIM       0.2138
     25 H11        25.1340   67.3939    8.9039 H           1 GIM       0.2100
     26 H12        21.1364   68.1874    8.3541 H           1 GIM       0.2095
@<TRIPOS>BOND
     1     1     2   1
     2     1     3   1
     3     1    10   2
     4     2     4   1
     5     2    12   1
     6     3     6   1
     7     3     9   1
     8     4     5   1
     9     4    11   1
    10     5     6   1
    11     5    13   1
    12     6     7   1
    13     7    14   1
    14     9     8   2
    15     8    10   1
    16     2    15   1
    17     4    16   1
    18     5    17   1
    19     6    18   1
    20     7    19   1
    21     7    20   1
    22     8    21   1
    23     9    22   1
    24    11    23   1
    25    12    24   1
    26    13    25   1
    27    14    26   1
@<TRIPOS>SUBSTRUCTURE
     1  GIM      1

