@<TRIPOS>MOLECULE
3d4z_ligand_019
    26    27
SMALL
GAST_HUCK
****
This file was generated by PARSER (from files_GN.cpp)

@<TRIPOS>ATOM
      1 C1         22.6822   67.0154    9.4175 C.2         1 GIM       0.1465
      2 C2         21.2785   66.6238    9.1869 C.3         1 GIM       0.1586
      3 N10        23.1101   67.7919   10.4392 N.pl3       1 GIM      -0.2404
      4 C3         20.3308   67.0097   10.3684 C.3         1 GIM       0.1253
      5 C4         20.7706   68.2900   11.1333 C.3         1 GIM       0.1183
      6 C5         22.2933   68.3231   11.5023 C.3         1 GIM       0.1196
      7 C6         22.6483   67.6438   12.8595 C.3         1 GIM       0.0773
      8 C7         24.7930   67.3381    9.0920 C.2         1 GIM      -0.0364
      9 C8         24.4215   68.0082   10.2481 C.2         1 GIM       0.0285
     10 N1         23.7076   66.7369    8.5882 N.2         1 GIM      -0.3367
     11 O3         20.2102   65.9229   11.2861 O.3         1 GIM      -0.3839
     12 O2         20.8168   67.2126    7.9721 O.3         1 GIM      -0.3699
     13 O4         20.4533   69.4300   10.3282 O.3         1 GIM      -0.3858
     14 O6         22.4056   66.2417   12.8740 O.3         1 GIM      -0.3918
     15 H1         21.2458   65.5460    9.0444 H           1 GIM       0.0858
     16 H2         19.3215   67.1669    9.9741 H           1 GIM       0.0675
     17 H3         20.1693   68.3857   12.0418 H           1 GIM       0.0654
     18 H4         22.5587   69.3796   11.6237 H           1 GIM       0.0704
     19 H5         22.0670   68.0984   13.6651 H           1 GIM       0.0589
     20 H6         23.7042   67.8128   13.0871 H           1 GIM       0.0589
     21 H7         25.7267   67.3227    8.6799 H           1 GIM       0.0408
     22 H8         25.0412   68.5827   10.8273 H           1 GIM       0.0796
     23 H9         20.3834   65.1090   10.7680 H           1 GIM       0.2103
     24 H10        21.4001   67.9848    7.8167 H           1 GIM       0.2138
     25 H11        21.0732   69.3985    9.5706 H           1 GIM       0.2100
     26 H12        23.0502   65.8518   12.2468 H           1 GIM       0.2095
@<TRIPOS>BOND
     1     1     2   1
     2     1     3   1
     3     1    10   2
     4     2     4   1
     5     2    12   1
     6     3     6   1
     7     3     9   1
     8     4     5   1
     9     4    11   1
    10     5     6   1
    11     5    13   1
    12     6     7   1
    13     7    14   1
    14     9     8   2
    15     8    10   1
    16     2    15   1
    17     4    16   1
    18     5    17   1
    19     6    18   1
    20     7    19   1
    21     7    20   1
    22     8    21   1
    23     9    22   1
    24    11    23   1
    25    12    24   1
    26    13    25   1
    27    14    26   1
@<TRIPOS>SUBSTRUCTURE
     1  GIM      1

