@<TRIPOS>MOLECULE
3d4z_ligand_045
    26    27
SMALL
GAST_HUCK
****
This file was generated by PARSER (from files_GN.cpp)

@<TRIPOS>ATOM
      1 C1         29.7753   65.0965    8.3239 C.2         1 GIM       0.1465
      2 C2         30.4782   65.4066    7.0616 C.3         1 GIM       0.1586
      3 N10        28.5043   65.4593    8.6181 N.pl3       1 GIM      -0.2404
      4 C3         29.4997   65.9265    5.9711 C.3         1 GIM       0.1253
      5 C4         28.3984   66.8566    6.5593 C.3         1 GIM       0.1183
      6 C5         27.6143   66.2161    7.7649 C.3         1 GIM       0.1196
      7 C6         26.3704   65.3957    7.3208 C.3         1 GIM       0.0773
      8 C7         29.4196   64.4542   10.3561 C.2         1 GIM      -0.0364
      9 C8         28.2677   65.0531    9.8765 C.2         1 GIM       0.0285
     10 N1         30.3490   64.5106    9.3903 N.2         1 GIM      -0.3367
     11 O3         28.9077   64.8288    5.2801 O.3         1 GIM      -0.3839
     12 O2         31.4811   66.3768    7.3498 O.3         1 GIM      -0.3699
     13 O4         29.0502   68.0557    6.9750 O.3         1 GIM      -0.3858
     14 O6         25.5469   65.0220    8.4268 O.3         1 GIM      -0.3918
     15 H1         30.9729   64.5022    6.7085 H           1 GIM       0.0858
     16 H2         30.0647   66.4742    5.2163 H           1 GIM       0.0675
     17 H3         27.7061   67.1447    5.7552 H           1 GIM       0.0654
     18 H4         27.2123   67.0458    8.3647 H           1 GIM       0.0704
     19 H5         26.6638   64.4898    6.8049 H           1 GIM       0.0589
     20 H6         25.7516   65.9970    6.6498 H           1 GIM       0.0589
     21 H7         29.5469   64.0840   11.2957 H           1 GIM       0.0408
     22 H8         27.4073   65.1916   10.4106 H           1 GIM       0.0796
     23 H9         28.5110   64.2678    5.9704 H           1 GIM       0.2103
     24 H10        31.9764   66.4979    6.5106 H           1 GIM       0.2138
     25 H11        29.5045   67.8331    7.8166 H           1 GIM       0.2100
     26 H12        25.2763   65.8660    8.8450 H           1 GIM       0.2095
@<TRIPOS>BOND
     1     1     2   1
     2     1     3   1
     3     1    10   2
     4     2     4   1
     5     2    12   1
     6     3     6   1
     7     3     9   1
     8     4     5   1
     9     4    11   1
    10     5     6   1
    11     5    13   1
    12     6     7   1
    13     7    14   1
    14     9     8   2
    15     8    10   1
    16     2    15   1
    17     4    16   1
    18     5    17   1
    19     6    18   1
    20     7    19   1
    21     7    20   1
    22     8    21   1
    23     9    22   1
    24    11    23   1
    25    12    24   1
    26    13    25   1
    27    14    26   1
@<TRIPOS>SUBSTRUCTURE
     1  GIM      1

