@<TRIPOS>MOLECULE
3d4z_ligand_041
    26    27
SMALL
GAST_HUCK
****
This file was generated by PARSER (from files_GN.cpp)

@<TRIPOS>ATOM
      1 C1         23.1243   64.4559   11.4498 C.2         1 GIM       0.1465
      2 C2         23.5088   63.6466   12.6258 C.3         1 GIM       0.1586
      3 N10        23.5664   64.2254   10.1917 N.pl3       1 GIM      -0.2404
      4 C3         24.8236   62.8751   12.3301 C.3         1 GIM       0.1253
      5 C4         24.7414   62.1469   10.9632 C.3         1 GIM       0.1183
      6 C5         24.4576   63.1536    9.7921 C.3         1 GIM       0.1196
      7 C6         23.9244   62.3821    8.5391 C.3         1 GIM       0.0773
      8 C7         22.2900   66.0318   10.2338 C.2         1 GIM      -0.0364
      9 C8         23.0777   65.2195    9.4234 C.2         1 GIM       0.0285
     10 N1         22.3345   65.5490   11.4770 N.2         1 GIM      -0.3367
     11 O3         25.0701   61.9509   13.3890 O.3         1 GIM      -0.3839
     12 O2         23.6829   64.4793   13.7685 O.3         1 GIM      -0.3699
     13 O4         25.9630   61.4325   10.7452 O.3         1 GIM      -0.3858
     14 O6         24.3093   63.0146    7.3281 O.3         1 GIM      -0.3918
     15 H1         22.7004   62.9436   12.8349 H           1 GIM       0.0858
     16 H2         25.6552   63.5830   12.3138 H           1 GIM       0.0675
     17 H3         23.9303   61.4101   11.0176 H           1 GIM       0.0654
     18 H4         25.4049   63.6309    9.5303 H           1 GIM       0.0704
     19 H5         22.8366   62.2866    8.5831 H           1 GIM       0.0589
     20 H6         24.3484   61.3811    8.4729 H           1 GIM       0.0589
     21 H7         21.7848   66.8686    9.9358 H           1 GIM       0.0408
     22 H8         23.2399   65.3633    8.4245 H           1 GIM       0.0796
     23 H9         26.0511   61.8471   13.4073 H           1 GIM       0.2103
     24 H10        22.7833   64.7958   13.9972 H           1 GIM       0.2138
     25 H11        25.9013   61.0751    9.8319 H           1 GIM       0.2100
     26 H12        23.5063   63.4592    6.9737 H           1 GIM       0.2095
@<TRIPOS>BOND
     1     1     2   1
     2     1     3   1
     3     1    10   2
     4     2     4   1
     5     2    12   1
     6     3     6   1
     7     3     9   1
     8     4     5   1
     9     4    11   1
    10     5     6   1
    11     5    13   1
    12     6     7   1
    13     7    14   1
    14     9     8   2
    15     8    10   1
    16     2    15   1
    17     4    16   1
    18     5    17   1
    19     6    18   1
    20     7    19   1
    21     7    20   1
    22     8    21   1
    23     9    22   1
    24    11    23   1
    25    12    24   1
    26    13    25   1
    27    14    26   1
@<TRIPOS>SUBSTRUCTURE
     1  GIM      1

