@<TRIPOS>MOLECULE
3dd0_ligand_005
    26    27
SMALL
GAST_HUCK
****
This file was generated by PARSER (from files_GN.cpp)

@<TRIPOS>ATOM
      1 N1         -3.6225   -0.1743   15.0308 N.am        1 EZL      -0.2548
      2 C2         -4.8791    3.7887   13.1014 C.ar        1 EZL       0.0296
      3 C3         -5.5858    4.5999   14.0021 C.ar        1 EZL       0.0510
      4 C4         -5.9365    5.9225   13.6958 C.ar        1 EZL      -0.0189
      5 C5         -5.5916    6.4385   12.4280 C.ar        1 EZL       0.0844
      6 C8         -7.2178    7.7946   11.3720 C.3         1 EZL       0.0670
      7 O1         -4.5068    1.0868   17.1647 O.2         1 EZL      -0.1431
      8 O2         -6.1726   -0.0993   15.6984 O.2         1 EZL      -0.1431
      9 S1         -4.8555    0.7858   15.6442 S.o2        1 EZL       0.1041
     10 C1         -5.0775    2.2710   14.7892 C.2         1 EZL       0.2500
     11 N2         -4.6123    2.5355   13.5492 N.2         1 EZL      -0.2771
     12 S2         -5.8734    3.6635   15.4090 S.3         1 EZL       0.0259
     13 C6         -4.8614    5.6360   11.5188 C.ar        1 EZL      -0.0391
     14 C7         -4.5055    4.3111   11.8497 C.ar        1 EZL      -0.0596
     15 O3         -5.9642    7.7116   12.0858 O.3         1 EZL      -0.3212
     16 C9         -8.4532    7.5506   12.2662 C.3         1 EZL      -0.0372
     17 H1         -2.7580   -0.1810   15.4659 H           1 EZL       0.1640
     18 H2         -3.7817   -0.7332   14.2538 H           1 EZL       0.1640
     19 H3         -6.4493    6.4883   14.3733 H           1 EZL       0.0487
     20 H4         -7.2394    7.1053   10.5213 H           1 EZL       0.0610
     21 H5         -7.2968    8.8049   10.9646 H           1 EZL       0.0610
     22 H6         -4.5926    6.0157   10.6079 H           1 EZL       0.0502
     23 H7         -3.9841    3.7363   11.1835 H           1 EZL       0.0565
     24 H8         -9.3604    7.5877   11.6621 H           1 EZL       0.0255
     25 H9         -8.5108    8.3186   13.0405 H           1 EZL       0.0255
     26 H10        -8.4040    6.5715   12.7399 H           1 EZL       0.0255
@<TRIPOS>BOND
     1     9     1  am
     2     2     3  ar
     3    11     2   1
     4     2    14  ar
     5     3     4  ar
     6     3    12   1
     7     4     5  ar
     8     5    13  ar
     9     5    15   1
    10    15     6   1
    11     6    16   1
    12     9     7   2
    13     9     8   2
    14    10     9   1
    15    10    11   2
    16    10    12   1
    17    13    14  ar
    18     1    17   1
    19     1    18   1
    20     4    19   1
    21     6    20   1
    22     6    21   1
    23    13    22   1
    24    14    23   1
    25    16    24   1
    26    16    25   1
    27    16    26   1
@<TRIPOS>SUBSTRUCTURE
     1  EZL      2

