@<TRIPOS>MOLECULE
3dd0_ligand_025
    26    27
SMALL
GAST_HUCK
****
This file was generated by PARSER (from files_GN.cpp)

@<TRIPOS>ATOM
      1 N1         -7.0837    7.7658    7.4418 N.am        1 EZL      -0.2548
      2 C2         -4.7603    5.3519   10.8862 C.ar        1 EZL       0.0296
      3 C3         -4.1155    4.4496   10.0262 C.ar        1 EZL       0.0510
      4 C4         -3.5984    3.2285   10.4804 C.ar        1 EZL      -0.0189
      5 C5         -3.7485    2.8943   11.8448 C.ar        1 EZL       0.0844
      6 C8         -4.1859    0.6075   12.1290 C.3         1 EZL       0.0670
      7 O1         -5.3080    9.2239    8.7184 O.2         1 EZL      -0.1431
      8 O2         -4.5473    7.9807    6.6472 O.2         1 EZL      -0.1431
      9 S1         -5.4777    7.8538    7.9301 S.o2        1 EZL       0.1041
     10 C1         -4.9934    6.5501    8.9598 C.2         1 EZL       0.2500
     11 N2         -5.2252    6.4793   10.2891 N.2         1 EZL      -0.2771
     12 S2         -4.1562    5.1342    8.4545 S.3         1 EZL       0.0259
     13 C6         -4.3716    3.8079   12.7279 C.ar        1 EZL      -0.0391
     14 C7         -4.8803    5.0354   12.2523 C.ar        1 EZL      -0.0596
     15 O3         -3.2708    1.7043   12.3242 O.3         1 EZL      -0.3212
     16 C9         -3.5928   -0.6580   12.7703 C.3         1 EZL      -0.0372
     17 H1         -7.7452    8.3248    7.8780 H           1 EZL       0.1640
     18 H2         -7.3198    7.2948    6.6265 H           1 EZL       0.1640
     19 H3         -3.1421    2.5906    9.8276 H           1 EZL       0.0487
     20 H4         -4.3353    0.4179   11.0620 H           1 EZL       0.0610
     21 H5         -5.1578    0.8098   12.5930 H           1 EZL       0.0610
     22 H6         -4.4636    3.5746   13.7199 H           1 EZL       0.0502
     23 H7         -5.3411    5.6850   12.8939 H           1 EZL       0.0565
     24 H8         -4.2506   -1.5114   12.5971 H           1 EZL       0.0255
     25 H9         -3.4799   -0.5137   13.8456 H           1 EZL       0.0255
     26 H10        -2.6159   -0.8717   12.3357 H           1 EZL       0.0255
@<TRIPOS>BOND
     1     9     1  am
     2     2     3  ar
     3    11     2   1
     4     2    14  ar
     5     3     4  ar
     6     3    12   1
     7     4     5  ar
     8     5    13  ar
     9     5    15   1
    10    15     6   1
    11     6    16   1
    12     9     7   2
    13     9     8   2
    14    10     9   1
    15    10    11   2
    16    10    12   1
    17    13    14  ar
    18     1    17   1
    19     1    18   1
    20     4    19   1
    21     6    20   1
    22     6    21   1
    23    13    22   1
    24    14    23   1
    25    16    24   1
    26    16    25   1
    27    16    26   1
@<TRIPOS>SUBSTRUCTURE
     1  EZL      2

