@<TRIPOS>MOLECULE
3dd0_ligand_031
    26    27
SMALL
GAST_HUCK
****
This file was generated by PARSER (from files_GN.cpp)

@<TRIPOS>ATOM
      1 N1         -3.0532   -4.1219   12.1067 N.am        1 EZL      -0.2548
      2 C2         -3.9744   -0.0986   14.2264 C.ar        1 EZL       0.0296
      3 C3         -4.3651    0.8588   13.2748 C.ar        1 EZL       0.0510
      4 C4         -4.4641    2.2226   13.5888 C.ar        1 EZL      -0.0189
      5 C5         -4.1508    2.6406   14.9021 C.ar        1 EZL       0.0844
      6 C8         -2.9793    4.6379   15.3541 C.3         1 EZL       0.0670
      7 O1         -5.6436   -3.7187   11.8831 O.2         1 EZL      -0.1431
      8 O2         -4.1099   -2.8199   10.0500 O.2         1 EZL      -0.1431
      9 S1         -4.2341   -3.0316   11.6198 S.o2        1 EZL       0.1041
     10 C1         -4.2286   -1.5248   12.4683 C.2         1 EZL       0.2500
     11 N2         -3.8979   -1.3720   13.7701 N.2         1 EZL      -0.2771
     12 S2         -4.6526    0.0085   11.8111 S.3         1 EZL       0.0259
     13 C6         -3.7882    1.6787   15.8782 C.ar        1 EZL      -0.0391
     14 C7         -3.6950    0.3134   15.5413 C.ar        1 EZL      -0.0596
     15 O3         -4.2552    3.9701   15.2214 O.3         1 EZL      -0.3212
     16 C9         -3.2048    6.1555   15.4262 C.3         1 EZL      -0.0372
     17 H1         -3.2800   -4.8640   12.6904 H           1 EZL       0.1640
     18 H2         -2.1748   -4.0774   11.7018 H           1 EZL       0.1640
     19 H3         -4.7601    2.8969   12.8790 H           1 EZL       0.0487
     20 H4         -2.3200    4.4331   14.5028 H           1 EZL       0.0610
     21 H5         -2.4832    4.3166   16.2765 H           1 EZL       0.0610
     22 H6         -3.5978    1.9719   16.8428 H           1 EZL       0.0502
     23 H7         -3.4107   -0.3720   16.2441 H           1 EZL       0.0565
     24 H8         -2.2479    6.6752   15.5329 H           1 EZL       0.0255
     25 H9         -3.8335    6.4151   16.2764 H           1 EZL       0.0255
     26 H10        -3.6909    6.5069   14.5125 H           1 EZL       0.0255
@<TRIPOS>BOND
     1     9     1  am
     2     2     3  ar
     3    11     2   1
     4     2    14  ar
     5     3     4  ar
     6     3    12   1
     7     4     5  ar
     8     5    13  ar
     9     5    15   1
    10    15     6   1
    11     6    16   1
    12     9     7   2
    13     9     8   2
    14    10     9   1
    15    10    11   2
    16    10    12   1
    17    13    14  ar
    18     1    17   1
    19     1    18   1
    20     4    19   1
    21     6    20   1
    22     6    21   1
    23    13    22   1
    24    14    23   1
    25    16    24   1
    26    16    25   1
    27    16    26   1
@<TRIPOS>SUBSTRUCTURE
     1  EZL      2

