@<TRIPOS>MOLECULE
3dd0_ligand_008
    26    27
SMALL
GAST_HUCK
****
This file was generated by PARSER (from files_GN.cpp)

@<TRIPOS>ATOM
      1 N1         -1.9932    7.0571   13.0559 N.am        1 EZL      -0.2548
      2 C2         -3.9119    3.4193   15.1382 C.ar        1 EZL       0.0296
      3 C3         -5.2860    3.3767   14.8521 C.ar        1 EZL       0.0510
      4 C4         -6.0736    2.2546   15.1499 C.ar        1 EZL      -0.0189
      5 C5         -5.4586    1.1458   15.7696 C.ar        1 EZL       0.0844
      6 C8         -6.6658    0.0069   17.4667 C.3         1 EZL       0.0670
      7 O1         -4.5404    7.6921   12.6444 O.2         1 EZL      -0.1431
      8 O2         -3.5325    8.0633   14.9458 O.2         1 EZL      -0.1431
      9 S1         -3.5422    7.0611   13.7100 S.o2        1 EZL       0.1041
     10 C1         -4.0799    5.5026   14.2308 C.2         1 EZL       0.2500
     11 N2         -3.2838    4.5726   14.7991 N.2         1 EZL      -0.2771
     12 S2         -5.6859    4.8869   14.1436 S.3         1 EZL       0.0259
     13 C6         -4.0652    1.1622   16.0207 C.ar        1 EZL      -0.0391
     14 C7         -3.2926    2.3033   15.7225 C.ar        1 EZL      -0.0596
     15 O3         -6.1891    0.0349   16.1056 O.3         1 EZL      -0.3212
     16 C9         -7.9632    0.8184   17.6512 C.3         1 EZL      -0.0372
     17 H1         -1.8724    6.9668   12.0975 H           1 EZL       0.1640
     18 H2         -1.2208    7.1176   13.6372 H           1 EZL       0.1640
     19 H3         -7.0739    2.2565   14.9484 H           1 EZL       0.0487
     20 H4         -5.9050    0.3586   18.1697 H           1 EZL       0.0610
     21 H5         -6.8730   -1.0355   17.7097 H           1 EZL       0.0610
     22 H6         -3.6119    0.3397   16.4335 H           1 EZL       0.0502
     23 H7         -2.2902    2.3144   15.9211 H           1 EZL       0.0565
     24 H8         -8.3424    0.6772   18.6671 H           1 EZL       0.0255
     25 H9         -8.7279    0.4848   16.9398 H           1 EZL       0.0255
     26 H10        -7.7795    1.8840   17.4947 H           1 EZL       0.0255
@<TRIPOS>BOND
     1     9     1  am
     2     2     3  ar
     3    11     2   1
     4     2    14  ar
     5     3     4  ar
     6     3    12   1
     7     4     5  ar
     8     5    13  ar
     9     5    15   1
    10    15     6   1
    11     6    16   1
    12     9     7   2
    13     9     8   2
    14    10     9   1
    15    10    11   2
    16    10    12   1
    17    13    14  ar
    18     1    17   1
    19     1    18   1
    20     4    19   1
    21     6    20   1
    22     6    21   1
    23    13    22   1
    24    14    23   1
    25    16    24   1
    26    16    25   1
    27    16    26   1
@<TRIPOS>SUBSTRUCTURE
     1  EZL      2

