@<TRIPOS>MOLECULE
3dd0_ligand_007
    26    27
SMALL
GAST_HUCK
****
This file was generated by PARSER (from files_GN.cpp)

@<TRIPOS>ATOM
      1 N1         -6.4029    2.0144   19.9090 N.am        1 EZL      -0.2548
      2 C2         -5.6746    3.6666   15.1596 C.ar        1 EZL       0.0296
      3 C3         -6.5302    4.6900   15.5815 C.ar        1 EZL       0.0510
      4 C4         -6.6919    5.8736   14.8455 C.ar        1 EZL      -0.0189
      5 C5         -5.9743    6.0221   13.6361 C.ar        1 EZL       0.0844
      6 C8         -7.0112    7.3812   11.9469 C.3         1 EZL       0.0670
      7 O1         -7.8801    0.6605   18.1356 O.2         1 EZL      -0.1431
      8 O2         -5.3587    0.4217   18.1136 O.2         1 EZL      -0.1431
      9 S1         -6.5330    1.4788   18.3233 S.o2        1 EZL       0.1041
     10 C1         -6.3797    2.6904   17.0955 C.2         1 EZL       0.2500
     11 N2         -5.6098    2.5932   15.9904 N.2         1 EZL      -0.2771
     12 S2         -7.2210    4.1909   17.0688 S.3         1 EZL       0.0259
     13 C6         -5.1146    4.9877   13.1968 C.ar        1 EZL      -0.0391
     14 C7         -4.9622    3.8087   13.9539 C.ar        1 EZL      -0.0596
     15 O3         -5.9989    7.2157   12.9614 O.3         1 EZL      -0.3212
     16 C9         -8.4571    7.3508   12.4907 C.3         1 EZL      -0.0372
     17 H1         -7.1858    2.3734   20.3569 H           1 EZL       0.1640
     18 H2         -5.6361    1.7448   20.4439 H           1 EZL       0.1640
     19 H3         -7.2997    6.6155   15.1962 H           1 EZL       0.0487
     20 H4         -6.8922    6.6351   11.1568 H           1 EZL       0.0610
     21 H5         -6.8389    8.3597   11.4941 H           1 EZL       0.0610
     22 H6         -4.5815    5.1063   12.3324 H           1 EZL       0.0502
     23 H7         -4.3315    3.0695   13.6321 H           1 EZL       0.0565
     24 H8         -9.1642    7.5785   11.6941 H           1 EZL       0.0255
     25 H9         -8.5694    8.0914   13.2823 H           1 EZL       0.0255
     26 H10        -8.6921    6.3656   12.8976 H           1 EZL       0.0255
@<TRIPOS>BOND
     1     9     1  am
     2     2     3  ar
     3    11     2   1
     4     2    14  ar
     5     3     4  ar
     6     3    12   1
     7     4     5  ar
     8     5    13  ar
     9     5    15   1
    10    15     6   1
    11     6    16   1
    12     9     7   2
    13     9     8   2
    14    10     9   1
    15    10    11   2
    16    10    12   1
    17    13    14  ar
    18     1    17   1
    19     1    18   1
    20     4    19   1
    21     6    20   1
    22     6    21   1
    23    13    22   1
    24    14    23   1
    25    16    24   1
    26    16    25   1
    27    16    26   1
@<TRIPOS>SUBSTRUCTURE
     1  EZL      2

