@<TRIPOS>MOLECULE
3dd0_ligand_028
    26    27
SMALL
GAST_HUCK
****
This file was generated by PARSER (from files_GN.cpp)

@<TRIPOS>ATOM
      1 N1         -8.3435    7.8763    7.5050 N.am        1 EZL      -0.2548
      2 C2         -5.5862    7.2012   11.7640 C.ar        1 EZL       0.0296
      3 C3         -4.8907    8.2012   11.0644 C.ar        1 EZL       0.0510
      4 C4         -3.6909    8.7431   11.5365 C.ar        1 EZL      -0.0189
      5 C5         -3.1994    8.3104   12.7881 C.ar        1 EZL       0.0844
      6 C8         -2.0306   10.2373   13.6013 C.3         1 EZL       0.0670
      7 O1         -8.4603    5.5373    8.7158 O.2         1 EZL      -0.1431
      8 O2         -9.7425    7.4630    9.7413 O.2         1 EZL      -0.1431
      9 S1         -8.3859    7.1007    8.9952 S.o2        1 EZL       0.1041
     10 C1         -7.0221    7.4169   10.0086 C.2         1 EZL       0.2500
     11 N2         -6.7377    6.7900   11.1712 N.2         1 EZL      -0.2771
     12 S2         -5.7900    8.5624    9.6527 S.3         1 EZL       0.0259
     13 C6         -3.8655    7.2717   13.4826 C.ar        1 EZL      -0.0391
     14 C7         -5.0592    6.7164   12.9755 C.ar        1 EZL      -0.0596
     15 O3         -2.0313    8.8247   13.2876 O.3         1 EZL      -0.3212
     16 C9         -2.2704   10.4887   15.1015 C.3         1 EZL      -0.0372
     17 H1         -8.0990    7.3832    6.7074 H           1 EZL       0.1640
     18 H2         -8.6130    8.8046    7.4356 H           1 EZL       0.1640
     19 H3         -3.1945    9.4527   10.9910 H           1 EZL       0.0487
     20 H4         -2.7642   10.8082   13.0171 H           1 EZL       0.0610
     21 H5         -1.0439   10.6210   13.3509 H           1 EZL       0.0610
     22 H6         -3.4772    6.9170   14.3620 H           1 EZL       0.0502
     23 H7         -5.5499    5.9814   13.4961 H           1 EZL       0.0565
     24 H8         -2.3608   11.5606   15.2936 H           1 EZL       0.0255
     25 H9         -1.4282   10.1004   15.6757 H           1 EZL       0.0255
     26 H10        -3.1846    9.9928   15.4340 H           1 EZL       0.0255
@<TRIPOS>BOND
     1     9     1  am
     2     2     3  ar
     3    11     2   1
     4     2    14  ar
     5     3     4  ar
     6     3    12   1
     7     4     5  ar
     8     5    13  ar
     9     5    15   1
    10    15     6   1
    11     6    16   1
    12     9     7   2
    13     9     8   2
    14    10     9   1
    15    10    11   2
    16    10    12   1
    17    13    14  ar
    18     1    17   1
    19     1    18   1
    20     4    19   1
    21     6    20   1
    22     6    21   1
    23    13    22   1
    24    14    23   1
    25    16    24   1
    26    16    25   1
    27    16    26   1
@<TRIPOS>SUBSTRUCTURE
     1  EZL      2

