@<TRIPOS>MOLECULE
3dd0_ligand_014
    26    27
SMALL
GAST_HUCK
****
This file was generated by PARSER (from files_GN.cpp)

@<TRIPOS>ATOM
      1 N1         -5.6353    2.4473   20.2037 N.am        1 EZL      -0.2548
      2 C2         -4.9190    0.9217   15.8051 C.ar        1 EZL       0.0296
      3 C3         -5.4411    1.9339   14.9827 C.ar        1 EZL       0.0510
      4 C4         -5.1895    1.9823   13.6053 C.ar        1 EZL      -0.0189
      5 C5         -4.4367    0.9453   13.0151 C.ar        1 EZL       0.0844
      6 C8         -5.2967    0.8007   10.7890 C.3         1 EZL       0.0670
      7 O1         -7.4196    3.8767   18.9054 O.2         1 EZL      -0.1431
      8 O2         -7.9213    1.4316   19.3282 O.2         1 EZL      -0.1431
      9 S1         -6.7486    2.4360   18.9513 S.o2        1 EZL       0.1041
     10 C1         -6.0681    2.0652   17.4091 C.2         1 EZL       0.2500
     11 N2         -5.2699    1.0118   17.1170 N.2         1 EZL      -0.2771
     12 S2         -6.3649    2.9758   15.9818 S.3         1 EZL       0.0259
     13 C6         -3.8925   -0.0751   13.8314 C.ar        1 EZL      -0.0391
     14 C7         -4.1143   -0.0788   15.2277 C.ar        1 EZL      -0.0596
     15 O3         -4.1697    0.9673   11.6733 O.3         1 EZL      -0.3212
     16 C9         -5.3048   -0.6046   10.1645 C.3         1 EZL      -0.0372
     17 H1         -5.2514    3.2901   20.4912 H           1 EZL       0.1640
     18 H2         -5.3854    1.6262   20.6543 H           1 EZL       0.1640
     19 H3         -5.5729    2.7430   13.0415 H           1 EZL       0.0487
     20 H4         -5.1962    1.5343    9.9853 H           1 EZL       0.0610
     21 H5         -6.2637    0.9704   11.2673 H           1 EZL       0.0610
     22 H6         -3.3346   -0.8181   13.4124 H           1 EZL       0.0502
     23 H7         -3.6915   -0.7973   15.8183 H           1 EZL       0.0565
     24 H8         -6.1589   -0.7016    9.4892 H           1 EZL       0.0255
     25 H9         -5.3879   -1.3590   10.9456 H           1 EZL       0.0255
     26 H10        -4.3861   -0.7725    9.5962 H           1 EZL       0.0255
@<TRIPOS>BOND
     1     9     1  am
     2     2     3  ar
     3    11     2   1
     4     2    14  ar
     5     3     4  ar
     6     3    12   1
     7     4     5  ar
     8     5    13  ar
     9     5    15   1
    10    15     6   1
    11     6    16   1
    12     9     7   2
    13     9     8   2
    14    10     9   1
    15    10    11   2
    16    10    12   1
    17    13    14  ar
    18     1    17   1
    19     1    18   1
    20     4    19   1
    21     6    20   1
    22     6    21   1
    23    13    22   1
    24    14    23   1
    25    16    24   1
    26    16    25   1
    27    16    26   1
@<TRIPOS>SUBSTRUCTURE
     1  EZL      2

