@<TRIPOS>MOLECULE
3dd0_ligand_037
    26    27
SMALL
GAST_HUCK
****
This file was generated by PARSER (from files_GN.cpp)

@<TRIPOS>ATOM
      1 N1         -3.0000    5.4877   17.0638 N.am        1 EZL      -0.2548
      2 C2         -3.6062    2.2867   13.3514 C.ar        1 EZL       0.0296
      3 C3         -3.6007    1.2105   14.2534 C.ar        1 EZL       0.0510
      4 C4         -4.0871   -0.0578   13.8970 C.ar        1 EZL      -0.0189
      5 C5         -4.5671   -0.2533   12.5824 C.ar        1 EZL       0.0844
      6 C8         -4.0776   -2.4252   11.7607 C.3         1 EZL       0.0670
      7 O1         -0.7127    4.2140   16.7948 O.2         1 EZL      -0.1431
      8 O2         -1.3781    5.8103   14.9744 O.2         1 EZL      -0.1431
      9 S1         -1.9738    4.7256   15.9712 S.o2        1 EZL       0.1041
     10 C1         -2.6670    3.3925   15.1129 C.2         1 EZL       0.2500
     11 N2         -3.0977    3.4494   13.8345 N.2         1 EZL      -0.2771
     12 S2         -2.9197    1.7992   15.7152 S.3         1 EZL       0.0259
     13 C6         -4.5891    0.8292   11.6715 C.ar        1 EZL      -0.0391
     14 C7         -4.1119    2.1002   12.0539 C.ar        1 EZL      -0.0596
     15 O3         -5.0668   -1.4725   12.2019 O.3         1 EZL      -0.3212
     16 C9         -4.6923   -3.7344   11.2143 C.3         1 EZL      -0.0372
     17 H1         -2.9814    5.2342   18.0020 H           1 EZL       0.1640
     18 H2         -3.6842    6.0953   16.7431 H           1 EZL       0.1640
     19 H3         -4.0751   -0.8240   14.5699 H           1 EZL       0.0487
     20 H4         -3.4726   -2.6803   12.6270 H           1 EZL       0.0610
     21 H5         -3.4100   -1.9944   11.0076 H           1 EZL       0.0610
     22 H6         -4.9460    0.6901   10.7228 H           1 EZL       0.0502
     23 H7         -4.1410    2.8825   11.3979 H           1 EZL       0.0565
     24 H8         -3.9080   -4.4836   11.0719 H           1 EZL       0.0255
     25 H9         -5.1828   -3.5558   10.2560 H           1 EZL       0.0255
     26 H10        -5.4267   -4.1312   11.9200 H           1 EZL       0.0255
@<TRIPOS>BOND
     1     9     1  am
     2     2     3  ar
     3    11     2   1
     4     2    14  ar
     5     3     4  ar
     6     3    12   1
     7     4     5  ar
     8     5    13  ar
     9     5    15   1
    10    15     6   1
    11     6    16   1
    12     9     7   2
    13     9     8   2
    14    10     9   1
    15    10    11   2
    16    10    12   1
    17    13    14  ar
    18     1    17   1
    19     1    18   1
    20     4    19   1
    21     6    20   1
    22     6    21   1
    23    13    22   1
    24    14    23   1
    25    16    24   1
    26    16    25   1
    27    16    26   1
@<TRIPOS>SUBSTRUCTURE
     1  EZL      2

