@<TRIPOS>MOLECULE
3dd0_ligand_023
    26    27
SMALL
GAST_HUCK
****
This file was generated by PARSER (from files_GN.cpp)

@<TRIPOS>ATOM
      1 N1         -4.5266    4.9483   10.4016 N.am        1 EZL      -0.2548
      2 C2         -4.2875    2.1479   14.0670 C.ar        1 EZL       0.0296
      3 C3         -4.5886    2.8880   15.2219 C.ar        1 EZL       0.0510
      4 C4         -4.8614    2.2703   16.4502 C.ar        1 EZL      -0.0189
      5 C5         -4.8344    0.8573   16.5185 C.ar        1 EZL       0.0844
      6 C8         -6.2739   -0.5492   17.8214 C.3         1 EZL       0.0670
      7 O1         -4.5572    6.7944   12.3010 O.2         1 EZL      -0.1431
      8 O2         -2.3503    5.7016   11.7099 O.2         1 EZL      -0.1431
      9 S1         -3.9020    5.4046   11.8920 S.o2        1 EZL       0.1041
     10 C1         -4.1495    4.2219   13.1317 C.2         1 EZL       0.2500
     11 N2         -4.0526    2.8858   12.9535 N.2         1 EZL      -0.2771
     12 S2         -4.5440    4.5452   14.7748 S.3         1 EZL       0.0259
     13 C6         -4.5023    0.1053   15.3689 C.ar        1 EZL      -0.0391
     14 C7         -4.2384    0.7438   14.1404 C.ar        1 EZL      -0.0596
     15 O3         -5.0881    0.2618   17.7249 O.3         1 EZL      -0.3212
     16 C9         -7.5921    0.2397   17.6478 C.3         1 EZL      -0.0372
     17 H1         -5.3917    5.2809   10.1159 H           1 EZL       0.1640
     18 H2         -4.0340    4.3281    9.8418 H           1 EZL       0.1640
     19 H3         -5.0811    2.8328   17.2755 H           1 EZL       0.0487
     20 H4         -6.2703   -0.9912   18.8188 H           1 EZL       0.0610
     21 H5         -6.2310   -1.3750   17.1125 H           1 EZL       0.0610
     22 H6         -4.4603   -0.9141   15.4214 H           1 EZL       0.0502
     23 H7         -4.0110    0.1929   13.3118 H           1 EZL       0.0565
     24 H8         -8.4476   -0.4120   17.8317 H           1 EZL       0.0255
     25 H9         -7.6702    0.6332   16.6332 H           1 EZL       0.0255
     26 H10        -7.6295    1.0683   18.3581 H           1 EZL       0.0255
@<TRIPOS>BOND
     1     9     1  am
     2     2     3  ar
     3    11     2   1
     4     2    14  ar
     5     3     4  ar
     6     3    12   1
     7     4     5  ar
     8     5    13  ar
     9     5    15   1
    10    15     6   1
    11     6    16   1
    12     9     7   2
    13     9     8   2
    14    10     9   1
    15    10    11   2
    16    10    12   1
    17    13    14  ar
    18     1    17   1
    19     1    18   1
    20     4    19   1
    21     6    20   1
    22     6    21   1
    23    13    22   1
    24    14    23   1
    25    16    24   1
    26    16    25   1
    27    16    26   1
@<TRIPOS>SUBSTRUCTURE
     1  EZL      2

