@<TRIPOS>MOLECULE
3dd0_ligand_018
    26    27
SMALL
GAST_HUCK
****
This file was generated by PARSER (from files_GN.cpp)

@<TRIPOS>ATOM
      1 N1         -0.5852    5.8277   13.4406 N.am        1 EZL      -0.2548
      2 C2         -4.9573    3.8164   14.7712 C.ar        1 EZL       0.0296
      3 C3         -4.1482    2.8508   15.3914 C.ar        1 EZL       0.0510
      4 C4         -4.6584    1.6158   15.8176 C.ar        1 EZL      -0.0189
      5 C5         -6.0421    1.3731   15.6741 C.ar        1 EZL       0.0844
      6 C8         -6.9221    0.1736   17.5289 C.3         1 EZL       0.0670
      7 O1         -2.6941    7.4067   13.5346 O.2         1 EZL      -0.1431
      8 O2         -1.4443    6.9909   15.6964 O.2         1 EZL      -0.1431
      9 S1         -1.9201    6.2857   14.3538 S.o2        1 EZL       0.1041
     10 C1         -3.0067    4.9895   14.7109 C.2         1 EZL       0.2500
     11 N2         -4.3205    4.9566   14.4036 N.2         1 EZL      -0.2771
     12 S2         -2.5756    3.5274   15.5052 S.3         1 EZL       0.0259
     13 C6         -6.8648    2.3424   15.0542 C.ar        1 EZL      -0.0391
     14 C7         -6.3276    3.5621   14.5944 C.ar        1 EZL      -0.0596
     15 O3         -6.5969    0.2029   16.1213 O.3         1 EZL      -0.3212
     16 C9         -5.9849   -0.8241   18.2332 C.3         1 EZL      -0.0372
     17 H1         -0.5681    6.0098   12.4891 H           1 EZL       0.1640
     18 H2          0.1352    5.3239   13.8490 H           1 EZL       0.1640
     19 H3         -4.0379    0.9164   16.2265 H           1 EZL       0.0487
     20 H4         -7.9501   -0.1827   17.6314 H           1 EZL       0.0610
     21 H5         -6.8662    1.1503   18.0252 H           1 EZL       0.0610
     22 H6         -7.8624    2.1579   14.9355 H           1 EZL       0.0502
     23 H7         -6.9355    4.2632   14.1653 H           1 EZL       0.0565
     24 H8         -6.1373   -0.8081   19.3120 H           1 EZL       0.0255
     25 H9         -4.9475   -0.5675   18.0280 H           1 EZL       0.0255
     26 H10        -6.1764   -1.8311   17.8621 H           1 EZL       0.0255
@<TRIPOS>BOND
     1     9     1  am
     2     2     3  ar
     3    11     2   1
     4     2    14  ar
     5     3     4  ar
     6     3    12   1
     7     4     5  ar
     8     5    13  ar
     9     5    15   1
    10    15     6   1
    11     6    16   1
    12     9     7   2
    13     9     8   2
    14    10     9   1
    15    10    11   2
    16    10    12   1
    17    13    14  ar
    18     1    17   1
    19     1    18   1
    20     4    19   1
    21     6    20   1
    22     6    21   1
    23    13    22   1
    24    14    23   1
    25    16    24   1
    26    16    25   1
    27    16    26   1
@<TRIPOS>SUBSTRUCTURE
     1  EZL      2

