@<TRIPOS>MOLECULE
3dd0_ligand_011
    26    27
SMALL
GAST_HUCK
****
This file was generated by PARSER (from files_GN.cpp)

@<TRIPOS>ATOM
      1 N1         -5.5659    0.6167   19.5541 N.am        1 EZL      -0.2548
      2 C2         -5.8709    3.7773   15.5611 C.ar        1 EZL       0.0296
      3 C3         -4.6758    3.0728   15.3464 C.ar        1 EZL       0.0510
      4 C4         -3.8457    3.3426   14.2504 C.ar        1 EZL      -0.0189
      5 C5         -4.2396    4.3535   13.3383 C.ar        1 EZL       0.0844
      6 C8         -3.9515    3.8829   11.0316 C.3         1 EZL       0.0670
      7 O1         -6.8204    2.9144   19.8846 O.2         1 EZL      -0.1431
      8 O2         -8.0198    1.0698   18.6080 O.2         1 EZL      -0.1431
      9 S1         -6.5946    1.7376   18.8396 S.o2        1 EZL       0.1041
     10 C1         -5.9779    2.4143   17.3815 C.2         1 EZL       0.2500
     11 N2         -6.5595    3.4011   16.6716 N.2         1 EZL      -0.2771
     12 S2         -4.5048    1.9426   16.6187 S.3         1 EZL       0.0259
     13 C6         -5.4285    5.0818   13.5598 C.ar        1 EZL      -0.0391
     14 C7         -6.2542    4.7883   14.6658 C.ar        1 EZL      -0.0596
     15 O3         -3.4686    4.5435   12.2247 O.3         1 EZL      -0.3212
     16 C9         -4.3371    2.3935   11.1957 C.3         1 EZL      -0.0372
     17 H1         -5.0816    0.8511   20.3589 H           1 EZL       0.1640
     18 H2         -5.5446   -0.2923   19.2192 H           1 EZL       0.1640
     19 H3         -2.9965    2.7996   14.0966 H           1 EZL       0.0487
     20 H4         -3.1471    3.9397   10.2905 H           1 EZL       0.0610
     21 H5         -4.8052    4.4344   10.6283 H           1 EZL       0.0610
     22 H6         -5.7012    5.8226   12.9079 H           1 EZL       0.0502
     23 H7         -7.1195    5.3131   14.8189 H           1 EZL       0.0565
     24 H8         -4.6128    1.9653   10.2404 H           1 EZL       0.0255
     25 H9         -5.1956    2.3032   11.8730 H           1 EZL       0.0255
     26 H10        -3.4995    1.8374   11.6231 H           1 EZL       0.0255
@<TRIPOS>BOND
     1     9     1  am
     2     2     3  ar
     3    11     2   1
     4     2    14  ar
     5     3     4  ar
     6     3    12   1
     7     4     5  ar
     8     5    13  ar
     9     5    15   1
    10    15     6   1
    11     6    16   1
    12     9     7   2
    13     9     8   2
    14    10     9   1
    15    10    11   2
    16    10    12   1
    17    13    14  ar
    18     1    17   1
    19     1    18   1
    20     4    19   1
    21     6    20   1
    22     6    21   1
    23    13    22   1
    24    14    23   1
    25    16    24   1
    26    16    25   1
    27    16    26   1
@<TRIPOS>SUBSTRUCTURE
     1  EZL      2

