@<TRIPOS>MOLECULE
3dd0_ligand_034
    26    27
SMALL
GAST_HUCK
****
This file was generated by PARSER (from files_GN.cpp)

@<TRIPOS>ATOM
      1 N1         -3.5450    5.8805    5.8529 N.am        1 EZL      -0.2548
      2 C2         -4.8376    6.1447   10.7590 C.ar        1 EZL       0.0296
      3 C3         -4.0573    4.9782   10.7682 C.ar        1 EZL       0.0510
      4 C4         -3.6375    4.3708   11.9602 C.ar        1 EZL      -0.0189
      5 C5         -4.0052    4.9630   13.1867 C.ar        1 EZL       0.0844
      6 C8         -2.5152    5.0531   15.0295 C.3         1 EZL       0.0670
      7 O1         -6.0592    5.2604    6.2866 O.2         1 EZL      -0.1431
      8 O2         -5.3925    7.6828    6.5533 O.2         1 EZL      -0.1431
      9 S1         -4.8874    6.1974    6.8134 S.o2        1 EZL       0.1041
     10 C1         -4.6611    5.8761    8.4987 C.2         1 EZL       0.2500
     11 N2         -5.1527    6.6114    9.5221 N.2         1 EZL      -0.2771
     12 S2         -3.7788    4.5438    9.1332 S.3         1 EZL       0.0259
     13 C6         -4.8109    6.1281   13.1948 C.ar        1 EZL      -0.0391
     14 C7         -5.2223    6.7255   11.9825 C.ar        1 EZL      -0.0596
     15 O3         -3.5780    4.3637   14.3398 O.3         1 EZL      -0.3212
     16 C9         -1.6460    4.0135   15.7631 C.3         1 EZL      -0.0372
     17 H1         -3.4788    5.0405    5.3719 H           1 EZL       0.1640
     18 H2         -2.8201    6.5233    5.8066 H           1 EZL       0.1640
     19 H3         -3.0682    3.5227   11.9365 H           1 EZL       0.0487
     20 H4         -2.9533    5.7419   15.7570 H           1 EZL       0.0610
     21 H5         -1.8619    5.6221   14.3587 H           1 EZL       0.0610
     22 H6         -5.0917    6.5478   14.0840 H           1 EZL       0.0502
     23 H7         -5.7936    7.5736   11.9953 H           1 EZL       0.0565
     24 H8         -0.8778    4.5132   16.3545 H           1 EZL       0.0255
     25 H9         -1.1569    3.3630   15.0358 H           1 EZL       0.0255
     26 H10        -2.2603    3.4027   16.4263 H           1 EZL       0.0255
@<TRIPOS>BOND
     1     9     1  am
     2     2     3  ar
     3    11     2   1
     4     2    14  ar
     5     3     4  ar
     6     3    12   1
     7     4     5  ar
     8     5    13  ar
     9     5    15   1
    10    15     6   1
    11     6    16   1
    12     9     7   2
    13     9     8   2
    14    10     9   1
    15    10    11   2
    16    10    12   1
    17    13    14  ar
    18     1    17   1
    19     1    18   1
    20     4    19   1
    21     6    20   1
    22     6    21   1
    23    13    22   1
    24    14    23   1
    25    16    24   1
    26    16    25   1
    27    16    26   1
@<TRIPOS>SUBSTRUCTURE
     1  EZL      2

