@<TRIPOS>MOLECULE
3dd0_ligand_033
    26    27
SMALL
GAST_HUCK
****
This file was generated by PARSER (from files_GN.cpp)

@<TRIPOS>ATOM
      1 N1         -5.6506   10.8005    9.0132 N.am        1 EZL      -0.2548
      2 C2         -6.0747    7.1499   12.5874 C.ar        1 EZL       0.0296
      3 C3         -4.7121    7.1198   12.2567 C.ar        1 EZL       0.0510
      4 C4         -3.8291    6.1878   12.8205 C.ar        1 EZL      -0.0189
      5 C5         -4.3333    5.2678   13.7662 C.ar        1 EZL       0.0844
      6 C8         -2.7051    4.8334   15.3999 C.3         1 EZL       0.0670
      7 O1         -8.0286    9.7279    9.3971 O.2         1 EZL      -0.1431
      8 O2         -7.1933   11.3924   11.0952 O.2         1 EZL      -0.1431
      9 S1         -6.7151   10.1947   10.1630 S.o2        1 EZL       0.1041
     10 C1         -6.0835    8.8854   11.1045 C.2         1 EZL       0.2500
     11 N2         -6.7950    8.1156   11.9612 N.2         1 EZL      -0.2771
     12 S2         -4.4437    8.3671   11.1119 S.3         1 EZL       0.0259
     13 C6         -5.7060    5.2886   14.1107 C.ar        1 EZL      -0.0391
     14 C7         -6.5757    6.2342   13.5328 C.ar        1 EZL      -0.0596
     15 O3         -3.5015    4.3296   14.3103 O.3         1 EZL      -0.3212
     16 C9         -1.6596    3.7758   15.7971 C.3         1 EZL      -0.0372
     17 H1         -5.6993   10.4866    8.0967 H           1 EZL       0.1640
     18 H2         -4.9401   11.4042    9.2837 H           1 EZL       0.1640
     19 H3         -2.8406    6.1838   12.5641 H           1 EZL       0.0487
     20 H4         -3.3408    5.0533   16.2625 H           1 EZL       0.0610
     21 H5         -2.1648    5.7444   15.1129 H           1 EZL       0.0610
     22 H6         -6.0732    4.6166   14.7882 H           1 EZL       0.0502
     23 H7         -7.5646    6.2551   13.7892 H           1 EZL       0.0565
     24 H8         -1.0381    4.1581   16.6108 H           1 EZL       0.0255
     25 H9         -1.0191    3.5538   14.9394 H           1 EZL       0.0255
     26 H10        -2.1517    2.8565   16.1241 H           1 EZL       0.0255
@<TRIPOS>BOND
     1     9     1  am
     2     2     3  ar
     3    11     2   1
     4     2    14  ar
     5     3     4  ar
     6     3    12   1
     7     4     5  ar
     8     5    13  ar
     9     5    15   1
    10    15     6   1
    11     6    16   1
    12     9     7   2
    13     9     8   2
    14    10     9   1
    15    10    11   2
    16    10    12   1
    17    13    14  ar
    18     1    17   1
    19     1    18   1
    20     4    19   1
    21     6    20   1
    22     6    21   1
    23    13    22   1
    24    14    23   1
    25    16    24   1
    26    16    25   1
    27    16    26   1
@<TRIPOS>SUBSTRUCTURE
     1  EZL      2

