@<TRIPOS>MOLECULE
3dd0_ligand_009
    26    27
SMALL
GAST_HUCK
****
This file was generated by PARSER (from files_GN.cpp)

@<TRIPOS>ATOM
      1 N1         -8.0748    6.5324    7.7051 N.am        1 EZL      -0.2548
      2 C2         -4.9470    4.8574   11.0674 C.ar        1 EZL       0.0296
      3 C3         -3.9590    4.6127   10.1008 C.ar        1 EZL       0.0510
      4 C4         -2.8630    3.7713   10.3548 C.ar        1 EZL      -0.0189
      5 C5         -2.7329    3.1996   11.6435 C.ar        1 EZL       0.0844
      6 C8         -0.3375    3.0633   11.9046 C.3         1 EZL       0.0670
      7 O1         -7.6564    8.1755    9.7439 O.2         1 EZL      -0.1431
      8 O2         -6.1153    8.3038    7.7432 O.2         1 EZL      -0.1431
      9 S1         -6.9123    7.2791    8.6618 S.o2        1 EZL       0.1041
     10 C1         -5.8125    6.1804    9.4240 C.2         1 EZL       0.2500
     11 N2         -5.9407    5.6981   10.6788 N.2         1 EZL      -0.2771
     12 S2         -4.3802    5.5382    8.7187 S.3         1 EZL       0.0259
     13 C6         -3.7435    3.4176   12.6079 C.ar        1 EZL      -0.0391
     14 C7         -4.8503    4.2440   12.3271 C.ar        1 EZL      -0.0596
     15 O3         -1.6436    2.4688   12.0430 O.3         1 EZL      -0.3212
     16 C9         -0.2020    4.5556   12.3137 C.3         1 EZL      -0.0372
     17 H1         -8.9228    6.2685    8.0963 H           1 EZL       0.1640
     18 H2         -7.9520    6.4887    6.7435 H           1 EZL       0.1640
     19 H3         -2.1432    3.6386    9.6409 H           1 EZL       0.0487
     20 H4          0.0135    2.9346   10.8798 H           1 EZL       0.0610
     21 H5          0.3282    2.4836   12.5489 H           1 EZL       0.0610
     22 H6         -3.6439    3.0165   13.5446 H           1 EZL       0.0502
     23 H7         -5.5613    4.4120   13.0424 H           1 EZL       0.0565
     24 H8          0.8446    4.8620   12.3087 H           1 EZL       0.0255
     25 H9         -0.6066    4.7019   13.3140 H           1 EZL       0.0255
     26 H10        -0.7459    5.1950   11.6156 H           1 EZL       0.0255
@<TRIPOS>BOND
     1     9     1  am
     2     2     3  ar
     3    11     2   1
     4     2    14  ar
     5     3     4  ar
     6     3    12   1
     7     4     5  ar
     8     5    13  ar
     9     5    15   1
    10    15     6   1
    11     6    16   1
    12     9     7   2
    13     9     8   2
    14    10     9   1
    15    10    11   2
    16    10    12   1
    17    13    14  ar
    18     1    17   1
    19     1    18   1
    20     4    19   1
    21     6    20   1
    22     6    21   1
    23    13    22   1
    24    14    23   1
    25    16    24   1
    26    16    25   1
    27    16    26   1
@<TRIPOS>SUBSTRUCTURE
     1  EZL      2

