@<TRIPOS>MOLECULE
3dd0_ligand_010
    26    27
SMALL
GAST_HUCK
****
This file was generated by PARSER (from files_GN.cpp)

@<TRIPOS>ATOM
      1 N1         -4.2937   -4.4743   11.6711 N.am        1 EZL      -0.2548
      2 C2         -4.0103   -0.3797   14.1712 C.ar        1 EZL       0.0296
      3 C3         -4.7049    0.4693   13.2957 C.ar        1 EZL       0.0510
      4 C4         -5.2164    1.7066   13.7069 C.ar        1 EZL      -0.0189
      5 C5         -5.0493    2.0900   15.0550 C.ar        1 EZL       0.0844
      6 C8         -7.0003    3.2810   15.6638 C.3         1 EZL       0.0670
      7 O1         -3.7120   -2.6854    9.8119 O.2         1 EZL      -0.1431
      8 O2         -1.8979   -3.3303   11.4101 O.2         1 EZL      -0.1431
      9 S1         -3.4607   -3.0551   11.3360 S.o2        1 EZL       0.1041
     10 C1         -3.8853   -1.6935   12.3164 C.2         1 EZL       0.2500
     11 N2         -3.5769   -1.5415   13.6209 N.2         1 EZL      -0.2771
     12 S2         -4.7593   -0.3132   11.7727 S.3         1 EZL       0.0259
     13 C6         -4.3261    1.2616   15.9419 C.ar        1 EZL      -0.0391
     14 C7         -3.8140    0.0198   15.5080 C.ar        1 EZL      -0.0596
     15 O3         -5.5662    3.2669   15.5210 O.3         1 EZL      -0.3212
     16 C9         -7.3492    3.8337   17.0549 C.3         1 EZL      -0.0372
     17 H1         -5.0937   -4.7031   11.1688 H           1 EZL       0.1640
     18 H2         -4.0014   -5.0464   12.4006 H           1 EZL       0.1640
     19 H3         -5.7321    2.2946   13.0493 H           1 EZL       0.0487
     20 H4         -7.4827    2.3017   15.5600 H           1 EZL       0.0610
     21 H5         -7.4057    3.9435   14.8940 H           1 EZL       0.0610
     22 H6         -4.2034    1.5481   16.9148 H           1 EZL       0.0502
     23 H7         -3.3070   -0.5845   16.1580 H           1 EZL       0.0565
     24 H8         -8.4298    3.8061   17.2037 H           1 EZL       0.0255
     25 H9         -7.0036    4.8648   17.1517 H           1 EZL       0.0255
     26 H10        -6.8743    3.2253   17.8258 H           1 EZL       0.0255
@<TRIPOS>BOND
     1     9     1  am
     2     2     3  ar
     3    11     2   1
     4     2    14  ar
     5     3     4  ar
     6     3    12   1
     7     4     5  ar
     8     5    13  ar
     9     5    15   1
    10    15     6   1
    11     6    16   1
    12     9     7   2
    13     9     8   2
    14    10     9   1
    15    10    11   2
    16    10    12   1
    17    13    14  ar
    18     1    17   1
    19     1    18   1
    20     4    19   1
    21     6    20   1
    22     6    21   1
    23    13    22   1
    24    14    23   1
    25    16    24   1
    26    16    25   1
    27    16    26   1
@<TRIPOS>SUBSTRUCTURE
     1  EZL      2

