@<TRIPOS>MOLECULE
3dd0_ligand_029
    26    27
SMALL
GAST_HUCK
****
This file was generated by PARSER (from files_GN.cpp)

@<TRIPOS>ATOM
      1 N1         -4.5158   -4.2791   11.7237 N.am        1 EZL      -0.2548
      2 C2         -4.5461    0.8008   12.4425 C.ar        1 EZL       0.0296
      3 C3         -4.2560    0.5275   13.7889 C.ar        1 EZL       0.0510
      4 C4         -4.3151    1.5158   14.7852 C.ar        1 EZL      -0.0189
      5 C5         -4.6724    2.8307   14.4128 C.ar        1 EZL       0.0844
      6 C8         -3.5916    4.7153   15.3951 C.3         1 EZL       0.0670
      7 O1         -3.6260   -2.6206    9.7949 O.2         1 EZL      -0.1431
      8 O2         -2.1412   -3.1923   11.6886 O.2         1 EZL      -0.1431
      9 S1         -3.6640   -2.8759   11.3613 S.o2        1 EZL       0.1041
     10 C1         -4.0412   -1.4089   12.1969 C.2         1 EZL       0.2500
     11 N2         -4.4192   -0.2563   11.6028 N.2         1 EZL      -0.2771
     12 S2         -3.8285   -1.1324   13.8803 S.3         1 EZL       0.0259
     13 C6         -5.0056    3.1081   13.0615 C.ar        1 EZL      -0.0391
     14 C7         -4.9289    2.1010   12.0737 C.ar        1 EZL      -0.0596
     15 O3         -4.7097    3.7978   15.3757 O.3         1 EZL      -0.3212
     16 C9         -2.2161    4.0561   15.6472 C.3         1 EZL      -0.0372
     17 H1         -5.4159   -4.4131   11.3807 H           1 EZL       0.1640
     18 H2         -4.0656   -5.0133   12.1764 H           1 EZL       0.1640
     19 H3         -4.0787    1.2863   15.7550 H           1 EZL       0.0487
     20 H4         -3.7853    5.4176   16.2088 H           1 EZL       0.0610
     21 H5         -3.5525    5.3009   14.4729 H           1 EZL       0.0610
     22 H6         -5.2957    4.0514   12.7921 H           1 EZL       0.0502
     23 H7         -5.1548    2.3197   11.1007 H           1 EZL       0.0565
     24 H8         -1.4588    4.8230   15.8154 H           1 EZL       0.0255
     25 H9         -1.9145    3.4581   14.7858 H           1 EZL       0.0255
     26 H10        -2.2668    3.4076   16.5241 H           1 EZL       0.0255
@<TRIPOS>BOND
     1     9     1  am
     2     2     3  ar
     3    11     2   1
     4     2    14  ar
     5     3     4  ar
     6     3    12   1
     7     4     5  ar
     8     5    13  ar
     9     5    15   1
    10    15     6   1
    11     6    16   1
    12     9     7   2
    13     9     8   2
    14    10     9   1
    15    10    11   2
    16    10    12   1
    17    13    14  ar
    18     1    17   1
    19     1    18   1
    20     4    19   1
    21     6    20   1
    22     6    21   1
    23    13    22   1
    24    14    23   1
    25    16    24   1
    26    16    25   1
    27    16    26   1
@<TRIPOS>SUBSTRUCTURE
     1  EZL      2

