@<TRIPOS>MOLECULE
3dd0_ligand_002
    26    27
SMALL
GAST_HUCK
****
This file was generated by PARSER (from files_GN.cpp)

@<TRIPOS>ATOM
      1 N1         -3.8807   -2.1428   10.8404 N.am        1 EZL      -0.2548
      2 C2         -5.5348    1.4949   14.0049 C.ar        1 EZL       0.0296
      3 C3         -4.8691    0.5817   14.8354 C.ar        1 EZL       0.0510
      4 C4         -4.7182    0.7858   16.2135 C.ar        1 EZL      -0.0189
      5 C5         -5.2725    1.9513   16.7827 C.ar        1 EZL       0.0844
      6 C8         -6.0387    1.5029   18.9982 C.3         1 EZL       0.0670
      7 O1         -6.3447   -1.3119   10.3639 O.2         1 EZL      -0.1431
      8 O2         -4.4689    0.2188    9.7602 O.2         1 EZL      -0.1431
      9 S1         -4.9195   -0.8219   10.8708 S.o2        1 EZL       0.1041
     10 C1         -5.0194   -0.0462   12.4123 C.2         1 EZL       0.2500
     11 N2         -5.5995    1.1419   12.6963 N.2         1 EZL      -0.2771
     12 S2         -4.3695   -0.7237   13.8505 S.3         1 EZL       0.0259
     13 C6         -5.9308    2.8927   15.9611 C.ar        1 EZL      -0.0391
     14 C7         -6.0715    2.6644   14.5731 C.ar        1 EZL      -0.0596
     15 O3         -5.1299    2.1906   18.1146 O.3         1 EZL      -0.3212
     16 C9         -6.4474    2.4883   20.1060 C.3         1 EZL      -0.0372
     17 H1         -4.2145   -3.0339   11.0067 H           1 EZL       0.1640
     18 H2         -2.9467   -2.0031   10.6301 H           1 EZL       0.1640
     19 H3         -4.2215    0.0967   16.7839 H           1 EZL       0.0487
     20 H4         -5.4960    0.6642   19.4503 H           1 EZL       0.0610
     21 H5         -6.9433    1.1041   18.5194 H           1 EZL       0.0610
     22 H6         -6.3116    3.7477   16.3738 H           1 EZL       0.0502
     23 H7         -6.5741    3.3425   13.9918 H           1 EZL       0.0565
     24 H8         -7.0763    1.9980   20.8538 H           1 EZL       0.0255
     25 H9         -7.0002    3.3246   19.6711 H           1 EZL       0.0255
     26 H10        -5.5508    2.8698   20.5893 H           1 EZL       0.0255
@<TRIPOS>BOND
     1     9     1  am
     2     2     3  ar
     3    11     2   1
     4     2    14  ar
     5     3     4  ar
     6     3    12   1
     7     4     5  ar
     8     5    13  ar
     9     5    15   1
    10    15     6   1
    11     6    16   1
    12     9     7   2
    13     9     8   2
    14    10     9   1
    15    10    11   2
    16    10    12   1
    17    13    14  ar
    18     1    17   1
    19     1    18   1
    20     4    19   1
    21     6    20   1
    22     6    21   1
    23    13    22   1
    24    14    23   1
    25    16    24   1
    26    16    25   1
    27    16    26   1
@<TRIPOS>SUBSTRUCTURE
     1  EZL      2

