@<TRIPOS>MOLECULE
3dd0_ligand_027
    26    27
SMALL
GAST_HUCK
****
This file was generated by PARSER (from files_GN.cpp)

@<TRIPOS>ATOM
      1 N1         -4.4185   -0.7636   15.2267 N.am        1 EZL      -0.2548
      2 C2         -3.2331    3.2895   13.0769 C.ar        1 EZL       0.0296
      3 C3         -2.6529    4.0349   14.1158 C.ar        1 EZL       0.0510
      4 C4         -1.8458    5.1555   13.8703 C.ar        1 EZL      -0.0189
      5 C5         -1.5918    5.5285   12.5317 C.ar        1 EZL       0.0844
      6 C8          0.6083    6.3968   12.2753 C.3         1 EZL       0.0670
      7 O1         -4.6314    0.9311   17.2075 O.2         1 EZL      -0.1431
      8 O2         -6.4672    0.9355   15.4897 O.2         1 EZL      -0.1431
      9 S1         -4.8919    0.7938   15.6460 S.o2        1 EZL       0.1041
     10 C1         -4.0431    2.0595   14.8209 C.2         1 EZL       0.2500
     11 N2         -3.9768    2.2244   13.4794 N.2         1 EZL      -0.2771
     12 S2         -3.1351    3.3043   15.5884 S.3         1 EZL       0.0259
     13 C6         -2.1968    4.8062   11.4760 C.ar        1 EZL      -0.0391
     14 C7         -3.0128    3.6843   11.7437 C.ar        1 EZL      -0.0596
     15 O3         -0.8181    6.6290   12.2685 O.3         1 EZL      -0.3212
     16 C9          1.1467    5.9686   10.8947 C.3         1 EZL      -0.0372
     17 H1         -3.9392   -1.3089   15.8736 H           1 EZL       0.1640
     18 H2         -4.7745   -1.1730   14.4231 H           1 EZL       0.1640
     19 H3         -1.4457    5.6826   14.6484 H           1 EZL       0.0487
     20 H4          0.9124    5.6653   13.0314 H           1 EZL       0.0610
     21 H5          1.0861    7.3418   12.5414 H           1 EZL       0.0610
     22 H6         -2.0421    5.0961   10.5076 H           1 EZL       0.0502
     23 H7         -3.4465    3.1685   10.9740 H           1 EZL       0.0565
     24 H8          2.2283    5.8252   10.9467 H           1 EZL       0.0255
     25 H9          0.9299    6.7381   10.1511 H           1 EZL       0.0255
     26 H10         0.6849    5.0305   10.5819 H           1 EZL       0.0255
@<TRIPOS>BOND
     1     9     1  am
     2     2     3  ar
     3    11     2   1
     4     2    14  ar
     5     3     4  ar
     6     3    12   1
     7     4     5  ar
     8     5    13  ar
     9     5    15   1
    10    15     6   1
    11     6    16   1
    12     9     7   2
    13     9     8   2
    14    10     9   1
    15    10    11   2
    16    10    12   1
    17    13    14  ar
    18     1    17   1
    19     1    18   1
    20     4    19   1
    21     6    20   1
    22     6    21   1
    23    13    22   1
    24    14    23   1
    25    16    24   1
    26    16    25   1
    27    16    26   1
@<TRIPOS>SUBSTRUCTURE
     1  EZL      2

