@<TRIPOS>MOLECULE
3dd0_ligand_021
    26    27
SMALL
GAST_HUCK
****
This file was generated by PARSER (from files_GN.cpp)

@<TRIPOS>ATOM
      1 N1         -4.8830    6.0788   10.8439 N.am        1 EZL      -0.2548
      2 C2         -5.9689    4.3958   15.4976 C.ar        1 EZL       0.0296
      3 C3         -4.9654    3.4775   15.1641 C.ar        1 EZL       0.0510
      4 C4         -4.7127    2.3376   15.9499 C.ar        1 EZL      -0.0189
      5 C5         -5.5018    2.1240   17.1068 C.ar        1 EZL       0.0844
      6 C8         -6.2253   -0.0457   17.7877 C.3         1 EZL       0.0670
      7 O1         -6.5394    7.4802   12.3592 O.2         1 EZL      -0.1431
      8 O2         -4.0551    7.7459   12.7540 O.2         1 EZL      -0.1431
      9 S1         -5.1718    6.6681   12.3929 S.o2        1 EZL       0.1041
     10 C1         -5.2483    5.4457   13.6087 C.2         1 EZL       0.2500
     11 N2         -6.1080    5.4488   14.6486 N.2         1 EZL      -0.2771
     12 S2         -4.2326    4.0548   13.7257 S.3         1 EZL       0.0259
     13 C6         -6.4791    3.0768   17.4758 C.ar        1 EZL      -0.0391
     14 C7         -6.7392    4.1965   16.6581 C.ar        1 EZL      -0.0596
     15 O3         -5.2867    1.0388   17.9143 O.3         1 EZL      -0.3212
     16 C9         -7.7234    0.3571   17.7377 C.3         1 EZL      -0.0372
     17 H1         -5.6220    5.9594   10.2269 H           1 EZL       0.1640
     18 H2         -3.9751    5.9088   10.5519 H           1 EZL       0.1640
     19 H3         -3.9782    1.6840   15.6861 H           1 EZL       0.0487
     20 H4         -6.0823   -0.6876   18.6672 H           1 EZL       0.0610
     21 H5         -5.9855   -0.6501   16.9085 H           1 EZL       0.0610
     22 H6         -7.0087    2.9397   18.3416 H           1 EZL       0.0502
     23 H7         -7.4701    4.8647   16.9119 H           1 EZL       0.0565
     24 H8         -8.3556   -0.5311   17.8793 H           1 EZL       0.0255
     25 H9         -7.9661    0.8006   16.7751 H           1 EZL       0.0255
     26 H10        -7.9496    1.0708   18.5298 H           1 EZL       0.0255
@<TRIPOS>BOND
     1     9     1  am
     2     2     3  ar
     3    11     2   1
     4     2    14  ar
     5     3     4  ar
     6     3    12   1
     7     4     5  ar
     8     5    13  ar
     9     5    15   1
    10    15     6   1
    11     6    16   1
    12     9     7   2
    13     9     8   2
    14    10     9   1
    15    10    11   2
    16    10    12   1
    17    13    14  ar
    18     1    17   1
    19     1    18   1
    20     4    19   1
    21     6    20   1
    22     6    21   1
    23    13    22   1
    24    14    23   1
    25    16    24   1
    26    16    25   1
    27    16    26   1
@<TRIPOS>SUBSTRUCTURE
     1  EZL      2

