@<TRIPOS>MOLECULE
3dxg_ligand_036
    32    33
SMALL
GAST_HUCK
****
This file was generated by PARSER (from files_GN.cpp)

@<TRIPOS>ATOM
      1 N1         41.7500    5.6291    9.9312 N.am        1 U5P      -0.1592
      2 C2         42.3748    5.4599    8.7477 C.2         1 U5P       0.3328
      3 N3         42.1839    6.3293    7.7535 N.am        1 U5P      -0.1865
      4 C4         41.3975    7.3893    7.8948 C.2         1 U5P       0.1822
      5 C5         40.7838    7.6299    9.0809 C.2         1 U5P       0.0062
      6 C6         40.9849    6.7629   10.0898 C.2         1 U5P       0.0591
      7 O2         43.1663    4.5538    8.4953 O.2         1 U5P      -0.3815
      8 O4         41.2522    8.1516    6.9483 O.2         1 U5P      -0.4124
      9 C1'        41.9265    4.7279   11.0783 C.3         1 U5P       0.2059
     10 C2'        40.6233    4.3678   11.8511 C.3         1 U5P       0.1387
     11 O2'        40.4218    5.2484   12.9569 O.3         1 U5P      -0.3836
     12 C3'        40.7931    2.8940   12.2869 C.3         1 U5P       0.1149
     13 C4'        42.2211    2.5321   11.8240 C.3         1 U5P       0.1182
     14 O3'        40.6342    2.6891   13.6922 O.3         1 U5P      -0.3864
     15 O4'        42.5060    3.4510   10.7532 O.3         1 U5P      -0.3363
     16 C5'        42.3643    1.0555   11.3393 C.3         1 U5P       0.1072
     17 O5'        43.6278    0.4287   11.6582 O.3         1 U5P      -0.2734
     18 P          43.8291   -0.1620   13.0892 P.3         1 U5P       0.2008
     19 O1P        44.4285    0.7929   13.9884 O.co2       1 U5P      -0.5537
     20 O2P        44.7756   -1.2423   12.9559 O.co2       1 U5P      -0.5537
     21 O3P        42.6515   -0.7326   13.6998 O.co2       1 U5P      -0.5537
     22 H1         42.6427    6.1930    6.9122 H           1 U5P       0.2259
     23 H2         40.2086    8.4321    9.2116 H           1 U5P       0.0258
     24 H3         40.5460    6.9644   10.9555 H           1 U5P       0.1178
     25 H4         42.6199    5.2286   11.7695 H           1 U5P       0.0997
     26 H5         39.7597    4.4460   11.1879 H           1 U5P       0.0676
     27 H6         39.5867    4.9537   13.3747 H           1 U5P       0.2101
     28 H7         40.0454    2.2889   11.7616 H           1 U5P       0.0648
     29 H8         42.9327    2.7216   12.6408 H           1 U5P       0.0650
     30 H9         40.7705    1.7258   13.8244 H           1 U5P       0.2100
     31 H10        42.2982    1.0447   10.2483 H           1 U5P       0.0639
     32 H11        41.5239    0.4335   11.6840 H           1 U5P       0.0639
@<TRIPOS>BOND
     1     1     2  am
     2     1     6   1
     3     1     9   1
     4     2     3  am
     5     2     7   2
     6     3     4  am
     7     4     5   1
     8     4     8   2
     9     5     6   2
    10     9    10   1
    11     9    15   1
    12    10    11   1
    13    10    12   1
    14    12    13   1
    15    12    14   1
    16    13    15   1
    17    13    16   1
    18    16    17   1
    19    17    18   1
    20    18    19  ar
    21    18    20  ar
    22    18    21  ar
    23     3    22   1
    24     5    23   1
    25     6    24   1
    26     9    25   1
    27    10    26   1
    28    11    27   1
    29    12    28   1
    30    13    29   1
    31    14    30   1
    32    16    31   1
    33    16    32   1
@<TRIPOS>SUBSTRUCTURE
     1  U5P      2

