@<TRIPOS>MOLECULE
3dxg_ligand_028
    32    33
SMALL
GAST_HUCK
****
This file was generated by PARSER (from files_GN.cpp)

@<TRIPOS>ATOM
      1 N1         40.6511    5.8189   12.4457 N.am        1 U5P      -0.1592
      2 C2         39.4732    5.2068   12.1864 C.2         1 U5P       0.3328
      3 N3         38.5142    5.1739   13.1129 N.am        1 U5P      -0.1865
      4 C4         38.6788    5.7429   14.3083 C.2         1 U5P       0.1822
      5 C5         39.8455    6.3754   14.6069 C.2         1 U5P       0.0062
      6 C6         40.8177    6.3989   13.6757 C.2         1 U5P       0.0591
      7 O2         39.2093    4.6917   11.1101 O.2         1 U5P      -0.3815
      8 O4         37.7707    5.6868   15.1194 O.2         1 U5P      -0.4124
      9 C1'        41.7002    5.9415   11.4421 C.3         1 U5P       0.2059
     10 C2'        42.3768    4.6243   10.9893 C.3         1 U5P       0.1387
     11 O2'        43.5749    4.3821   11.7251 O.3         1 U5P      -0.3836
     12 C3'        42.6151    4.8524    9.4767 C.3         1 U5P       0.1149
     13 C4'        42.1786    6.3154    9.2252 C.3         1 U5P       0.1182
     14 O3'        43.9571    4.6383    9.0470 O.3         1 U5P      -0.3864
     15 O4'        41.1892    6.5364   10.2387 O.3         1 U5P      -0.3363
     16 C5'        41.6652    6.6212    7.7820 C.3         1 U5P       0.1072
     17 O5'        40.3692    7.2440    7.7281 O.3         1 U5P      -0.2734
     18 P          40.2576    8.7688    8.0090 P.3         1 U5P       0.2008
     19 O1P        41.2329    9.5678    7.3106 O.co2       1 U5P      -0.5537
     20 O2P        40.2954    9.0564    9.4214 O.co2       1 U5P      -0.5537
     21 O3P        38.9632    9.1744    7.5249 O.co2       1 U5P      -0.5537
     22 H1         37.6734    4.7290   12.9179 H           1 U5P       0.2259
     23 H2         39.9798    6.8143   15.4895 H           1 U5P       0.0258
     24 H3         41.6652    6.8665   13.9054 H           1 U5P       0.1178
     25 H4         42.4954    6.6107   11.8000 H           1 U5P       0.0997
     26 H5         41.7165    3.7621   11.1332 H           1 U5P       0.0676
     27 H6         43.2770    4.2268   12.6481 H           1 U5P       0.2101
     28 H7         41.9683    4.1707    8.9200 H           1 U5P       0.0648
     29 H8         43.0194    6.9928    9.4229 H           1 U5P       0.0650
     30 H9         44.4956    5.2554    9.5827 H           1 U5P       0.2100
     31 H10        41.5529    5.6874    7.2277 H           1 U5P       0.0639
     32 H11        42.4150    7.1997    7.2295 H           1 U5P       0.0639
@<TRIPOS>BOND
     1     1     2  am
     2     1     6   1
     3     1     9   1
     4     2     3  am
     5     2     7   2
     6     3     4  am
     7     4     5   1
     8     4     8   2
     9     5     6   2
    10     9    10   1
    11     9    15   1
    12    10    11   1
    13    10    12   1
    14    12    13   1
    15    12    14   1
    16    13    15   1
    17    13    16   1
    18    16    17   1
    19    17    18   1
    20    18    19  ar
    21    18    20  ar
    22    18    21  ar
    23     3    22   1
    24     5    23   1
    25     6    24   1
    26     9    25   1
    27    10    26   1
    28    11    27   1
    29    12    28   1
    30    13    29   1
    31    14    30   1
    32    16    31   1
    33    16    32   1
@<TRIPOS>SUBSTRUCTURE
     1  U5P      2

