@<TRIPOS>MOLECULE
3dxg_ligand_038
    32    33
SMALL
GAST_HUCK
****
This file was generated by PARSER (from files_GN.cpp)

@<TRIPOS>ATOM
      1 N1         41.0397    5.0987   10.6592 N.am        1 U5P      -0.1592
      2 C2         40.8919    6.4406   10.5434 C.2         1 U5P       0.3328
      3 N3         41.3895    7.0852    9.4879 N.am        1 U5P      -0.1865
      4 C4         42.0592    6.4460    8.5302 C.2         1 U5P       0.1822
      5 C5         42.2608    5.1021    8.6219 C.2         1 U5P       0.0062
      6 C6         41.7436    4.4489    9.6796 C.2         1 U5P       0.0591
      7 O2         40.3020    7.1380   11.3618 O.2         1 U5P      -0.3815
      8 O4         42.4706    7.0798    7.5692 O.2         1 U5P      -0.4124
      9 C1'        40.4663    4.3352   11.7605 C.3         1 U5P       0.2059
     10 C2'        39.4708    3.2519   11.2949 C.3         1 U5P       0.1387
     11 O2'        38.1783    3.7799   11.0105 O.3         1 U5P      -0.3836
     12 C3'        39.5295    2.2378   12.4452 C.3         1 U5P       0.1149
     13 C4'        41.0189    2.3307   12.8866 C.3         1 U5P       0.1182
     14 O3'        38.6483    2.5903   13.5172 O.3         1 U5P      -0.3864
     15 O4'        41.4688    3.6637   12.5479 O.3         1 U5P      -0.3363
     16 C5'        42.0183    1.2992   12.2608 C.3         1 U5P       0.1072
     17 O5'        41.3709    0.1260   11.7050 O.3         1 U5P      -0.2734
     18 P          42.2777   -0.8779   10.9296 P.3         1 U5P       0.2008
     19 O1P        43.5650   -0.3421   10.5623 O.co2       1 U5P      -0.5537
     20 O2P        41.5942   -1.2478    9.7141 O.co2       1 U5P      -0.5537
     21 O3P        42.4613   -2.0783   11.7098 O.co2       1 U5P      -0.5537
     22 H1         41.2602    8.0436    9.4059 H           1 U5P       0.2259
     23 H2         42.7833    4.6151    7.9280 H           1 U5P       0.0258
     24 H3         41.8844    3.4705    9.7278 H           1 U5P       0.1178
     25 H4         39.9448    4.9876   12.4668 H           1 U5P       0.0997
     26 H5         39.8306    2.7603   10.3841 H           1 U5P       0.0676
     27 H6         37.6291    3.6117   11.8126 H           1 U5P       0.2101
     28 H7         39.2270    1.2457   12.0985 H           1 U5P       0.0648
     29 H8         41.0626    2.2257   13.9689 H           1 U5P       0.0650
     30 H9         38.9879    3.4448   13.8670 H           1 U5P       0.2100
     31 H10        42.7303    1.0027   13.0395 H           1 U5P       0.0639
     32 H11        42.5829    1.7897   11.4664 H           1 U5P       0.0639
@<TRIPOS>BOND
     1     1     2  am
     2     1     6   1
     3     1     9   1
     4     2     3  am
     5     2     7   2
     6     3     4  am
     7     4     5   1
     8     4     8   2
     9     5     6   2
    10     9    10   1
    11     9    15   1
    12    10    11   1
    13    10    12   1
    14    12    13   1
    15    12    14   1
    16    13    15   1
    17    13    16   1
    18    16    17   1
    19    17    18   1
    20    18    19  ar
    21    18    20  ar
    22    18    21  ar
    23     3    22   1
    24     5    23   1
    25     6    24   1
    26     9    25   1
    27    10    26   1
    28    11    27   1
    29    12    28   1
    30    13    29   1
    31    14    30   1
    32    16    31   1
    33    16    32   1
@<TRIPOS>SUBSTRUCTURE
     1  U5P      2

