@<TRIPOS>MOLECULE
3dxg_ligand_021
    32    33
SMALL
GAST_HUCK
****
This file was generated by PARSER (from files_GN.cpp)

@<TRIPOS>ATOM
      1 N1         37.4849   -0.2195   14.8675 N.am        1 U5P      -0.1592
      2 C2         38.5899    0.3402   15.4125 C.2         1 U5P       0.3328
      3 N3         39.1200   -0.1502   16.5345 N.am        1 U5P      -0.1865
      4 C4         38.5855   -1.2021   17.1619 C.2         1 U5P       0.1822
      5 C5         37.4984   -1.8248   16.6261 C.2         1 U5P       0.0062
      6 C6         36.9748   -1.3339   15.4868 C.2         1 U5P       0.0591
      7 O2         39.1715    1.3072   14.9320 O.2         1 U5P      -0.3815
      8 O4         39.1053   -1.6081   18.1913 O.2         1 U5P      -0.4124
      9 C1'        36.8834    0.2792   13.6419 C.3         1 U5P       0.2059
     10 C2'        36.5560    1.7940   13.6555 C.3         1 U5P       0.1387
     11 O2'        35.1533    2.0364   13.5569 O.3         1 U5P      -0.3836
     12 C3'        37.3306    2.3484   12.4486 C.3         1 U5P       0.1149
     13 C4'        37.5484    1.0975   11.5796 C.3         1 U5P       0.1182
     14 O3'        36.6737    3.4033   11.7430 O.3         1 U5P      -0.3864
     15 O4'        37.7489    0.0369   12.5305 O.3         1 U5P      -0.3363
     16 C5'        38.7483    1.1935   10.5830 C.3         1 U5P       0.1072
     17 O5'        39.8469    0.3587   11.0529 O.3         1 U5P      -0.2734
     18 P          41.1309    0.3263   10.1602 P.3         1 U5P       0.2008
     19 O1P        42.2044   -0.1250   11.0067 O.co2       1 U5P      -0.5537
     20 O2P        41.4998    1.6264    9.6610 O.co2       1 U5P      -0.5537
     21 O3P        41.0346   -0.6252    9.0793 O.co2       1 U5P      -0.5537
     22 H1         39.9051    0.2812   16.9264 H           1 U5P       0.2259
     23 H2         37.1255   -2.6487   17.0537 H           1 U5P       0.0258
     24 H3         36.2027   -1.8251   15.0970 H           1 U5P       0.1178
     25 H4         35.9583   -0.2617   13.4083 H           1 U5P       0.0997
     26 H5         36.8961    2.2945   14.5625 H           1 U5P       0.0676
     27 H6         34.8464    1.5399   12.7680 H           1 U5P       0.2101
     28 H7         38.3076    2.7253   12.7696 H           1 U5P       0.0648
     29 H8         36.6382    0.8889   10.9957 H           1 U5P       0.0650
     30 H9         35.7490    3.1069   11.5914 H           1 U5P       0.2100
     31 H10        39.0760    2.2444   10.4880 H           1 U5P       0.0639
     32 H11        38.4058    0.8505    9.5887 H           1 U5P       0.0639
@<TRIPOS>BOND
     1     1     2  am
     2     1     6   1
     3     1     9   1
     4     2     3  am
     5     2     7   2
     6     3     4  am
     7     4     5   1
     8     4     8   2
     9     5     6   2
    10     9    10   1
    11     9    15   1
    12    10    11   1
    13    10    12   1
    14    12    13   1
    15    12    14   1
    16    13    15   1
    17    13    16   1
    18    16    17   1
    19    17    18   1
    20    18    19  ar
    21    18    20  ar
    22    18    21  ar
    23     3    22   1
    24     5    23   1
    25     6    24   1
    26     9    25   1
    27    10    26   1
    28    11    27   1
    29    12    28   1
    30    13    29   1
    31    14    30   1
    32    16    31   1
    33    16    32   1
@<TRIPOS>SUBSTRUCTURE
     1  U5P      2

