@<TRIPOS>MOLECULE
3dxg_ligand_071
    32    33
SMALL
GAST_HUCK
****
This file was generated by PARSER (from files_GN.cpp)

@<TRIPOS>ATOM
      1 N1         36.3833    6.4895   15.2942 N.am        1 U5P      -0.1592
      2 C2         36.5256    7.4375   14.3408 C.2         1 U5P       0.3328
      3 N3         36.4010    8.7280   14.6450 N.am        1 U5P      -0.1865
      4 C4         36.1666    9.1327   15.8933 C.2         1 U5P       0.1822
      5 C5         36.0429    8.2124   16.8916 C.2         1 U5P       0.0062
      6 C6         36.1588    6.9076   16.5828 C.2         1 U5P       0.0591
      7 O2         36.7256    7.1725   13.1618 O.2         1 U5P      -0.3815
      8 O4         36.0285   10.3257   16.1191 O.2         1 U5P      -0.4124
      9 C1'        36.5299    5.0673   15.0104 C.3         1 U5P       0.2059
     10 C2'        35.9805    4.5591   13.6420 C.3         1 U5P       0.1387
     11 O2'        34.9045    3.6326   13.8095 O.3         1 U5P      -0.3836
     12 C3'        37.2176    3.8928   12.9975 C.3         1 U5P       0.1149
     13 C4'        38.0970    3.5828   14.2267 C.3         1 U5P       0.1182
     14 O3'        36.9249    2.7290   12.2277 O.3         1 U5P      -0.3864
     15 O4'        37.9264    4.7341   15.0543 O.3         1 U5P      -0.3363
     16 C5'        39.6024    3.3645   13.9149 C.3         1 U5P       0.1072
     17 O5'        40.3899    3.2176   15.1166 O.3         1 U5P      -0.2734
     18 P          40.4815    1.8069   15.7670 P.3         1 U5P       0.2008
     19 O1P        39.2021    1.2341   16.1126 O.co2       1 U5P      -0.5537
     20 O2P        41.2313    1.9340   16.9953 O.co2       1 U5P      -0.5537
     21 O3P        41.2071    0.8889   14.9231 O.co2       1 U5P      -0.5537
     22 H1         36.4693    9.3996   13.9498 H           1 U5P       0.2259
     23 H2         35.8910    8.4951   17.8366 H           1 U5P       0.0258
     24 H3         36.0847    6.2478   17.3331 H           1 U5P       0.1178
     25 H4         36.0588    4.4661   15.8027 H           1 U5P       0.0997
     26 H5         35.6264    5.3878   13.0204 H           1 U5P       0.0676
     27 H6         34.6508    3.4043   12.8820 H           1 U5P       0.2101
     28 H7         37.7294    4.6161   12.3508 H           1 U5P       0.0648
     29 H8         37.7108    2.6988   14.7525 H           1 U5P       0.0650
     30 H9         36.5332    2.0827   12.8541 H           1 U5P       0.2100
     31 H10        39.9736    4.2599   13.4152 H           1 U5P       0.0639
     32 H11        39.7227    2.5318   13.2103 H           1 U5P       0.0639
@<TRIPOS>BOND
     1     1     2  am
     2     1     6   1
     3     1     9   1
     4     2     3  am
     5     2     7   2
     6     3     4  am
     7     4     5   1
     8     4     8   2
     9     5     6   2
    10     9    10   1
    11     9    15   1
    12    10    11   1
    13    10    12   1
    14    12    13   1
    15    12    14   1
    16    13    15   1
    17    13    16   1
    18    16    17   1
    19    17    18   1
    20    18    19  ar
    21    18    20  ar
    22    18    21  ar
    23     3    22   1
    24     5    23   1
    25     6    24   1
    26     9    25   1
    27    10    26   1
    28    11    27   1
    29    12    28   1
    30    13    29   1
    31    14    30   1
    32    16    31   1
    33    16    32   1
@<TRIPOS>SUBSTRUCTURE
     1  U5P      2

