@<TRIPOS>MOLECULE
3dxg_ligand_014
    32    33
SMALL
GAST_HUCK
****
This file was generated by PARSER (from files_GN.cpp)

@<TRIPOS>ATOM
      1 N1         36.7603   -1.5687   14.2386 N.am        1 U5P      -0.1592
      2 C2         37.4363   -0.5230   14.7603 C.2         1 U5P       0.3328
      3 N3         38.1452   -0.6709   15.8762 N.am        1 U5P      -0.1865
      4 C4         38.2235   -1.8423   16.5028 C.2         1 U5P       0.1822
      5 C5         37.5743   -2.9313   16.0012 C.2         1 U5P       0.0062
      6 C6         36.8568   -2.7810   14.8705 C.2         1 U5P       0.0591
      7 O2         37.4434    0.5958   14.2649 O.2         1 U5P      -0.3815
      8 O4         38.8888   -1.9238   17.5260 O.2         1 U5P      -0.4124
      9 C1'        35.9798   -1.4235   13.0223 C.3         1 U5P       0.2059
     10 C2'        36.8401   -1.5850   11.7527 C.3         1 U5P       0.1387
     11 O2'        37.5483   -0.4024   11.3932 O.3         1 U5P      -0.3836
     12 C3'        35.7829   -1.9913   10.7155 C.3         1 U5P       0.1149
     13 C4'        34.7898   -2.8338   11.5544 C.3         1 U5P       0.1182
     14 O3'        35.1193   -0.8466   10.1676 O.3         1 U5P      -0.3864
     15 O4'        34.8902   -2.3632   12.9104 O.3         1 U5P      -0.3363
     16 C5'        35.0872   -4.3600   11.5249 C.3         1 U5P       0.1072
     17 O5'        34.1509   -5.0607   12.3744 O.3         1 U5P      -0.2734
     18 P          34.3741   -6.5906   12.5524 P.3         1 U5P       0.2008
     19 O1P        35.5059   -6.8199   13.4080 O.co2       1 U5P      -0.5537
     20 O2P        34.5490   -7.2828   11.3017 O.co2       1 U5P      -0.5537
     21 O3P        33.1946   -7.1248   13.1852 O.co2       1 U5P      -0.5537
     22 H1         38.6236    0.0923   16.2407 H           1 U5P       0.2259
     23 H2         37.6330   -3.8172   16.4519 H           1 U5P       0.0258
     24 H3         36.4042   -3.5844   14.5011 H           1 U5P       0.1178
     25 H4         35.5038   -0.4383   13.0015 H           1 U5P       0.0997
     26 H5         37.5567   -2.3994   11.8776 H           1 U5P       0.0676
     27 H6         37.9487   -0.6007   10.5162 H           1 U5P       0.2101
     28 H7         36.2293   -2.5611    9.8916 H           1 U5P       0.0648
     29 H8         33.7758   -2.6721   11.2007 H           1 U5P       0.0650
     30 H9         35.8166   -0.1527   10.1089 H           1 U5P       0.2100
     31 H10        36.1218   -4.5280   11.8545 H           1 U5P       0.0639
     32 H11        34.9938   -4.7032   10.4921 H           1 U5P       0.0639
@<TRIPOS>BOND
     1     1     2  am
     2     1     6   1
     3     1     9   1
     4     2     3  am
     5     2     7   2
     6     3     4  am
     7     4     5   1
     8     4     8   2
     9     5     6   2
    10     9    10   1
    11     9    15   1
    12    10    11   1
    13    10    12   1
    14    12    13   1
    15    12    14   1
    16    13    15   1
    17    13    16   1
    18    16    17   1
    19    17    18   1
    20    18    19  ar
    21    18    20  ar
    22    18    21  ar
    23     3    22   1
    24     5    23   1
    25     6    24   1
    26     9    25   1
    27    10    26   1
    28    11    27   1
    29    12    28   1
    30    13    29   1
    31    14    30   1
    32    16    31   1
    33    16    32   1
@<TRIPOS>SUBSTRUCTURE
     1  U5P      2

