@<TRIPOS>MOLECULE
3dxg_ligand_040
    32    33
SMALL
GAST_HUCK
****
This file was generated by PARSER (from files_GN.cpp)

@<TRIPOS>ATOM
      1 N1         39.8630    7.1020   13.1995 N.am        1 U5P      -0.1592
      2 C2         38.9033    6.7835   12.3018 C.2         1 U5P       0.3328
      3 N3         39.1893    6.7331   11.0005 N.am        1 U5P      -0.1865
      4 C4         40.4229    6.9352   10.5473 C.2         1 U5P       0.1822
      5 C5         41.4296    7.2197   11.4167 C.2         1 U5P       0.0062
      6 C6         41.1352    7.3050   12.7292 C.2         1 U5P       0.0591
      7 O2         37.7512    6.5152   12.6124 O.2         1 U5P      -0.3815
      8 O4         40.6317    6.8640    9.3436 O.2         1 U5P      -0.4124
      9 C1'        39.5909    7.1988   14.6305 C.3         1 U5P       0.2059
     10 C2'        38.5195    8.2430   15.0449 C.3         1 U5P       0.1387
     11 O2'        39.1142    9.4994   15.3730 O.3         1 U5P      -0.3836
     12 C3'        37.7902    7.5628   16.2255 C.3         1 U5P       0.1149
     13 C4'        38.5355    6.2218   16.4295 C.3         1 U5P       0.1182
     14 O3'        37.7769    8.3513   17.4159 O.3         1 U5P      -0.3864
     15 O4'        39.1322    5.9418   15.1534 O.3         1 U5P      -0.3363
     16 C5'        37.6246    5.0450   16.8742 C.3         1 U5P       0.1072
     17 O5'        38.3949    3.9033   17.3148 O.3         1 U5P      -0.2734
     18 P          38.5994    3.7091   18.8502 P.3         1 U5P       0.2008
     19 O1P        37.3416    3.4613   19.5082 O.co2       1 U5P      -0.5537
     20 O2P        39.2578    4.8247   19.4785 O.co2       1 U5P      -0.5537
     21 O3P        39.4132    2.5406   19.0614 O.co2       1 U5P      -0.5537
     22 H1         38.4791    6.5483   10.3668 H           1 U5P       0.2259
     23 H2         42.3626    7.3508   11.0957 H           1 U5P       0.0258
     24 H3         41.8829    7.4995   13.3557 H           1 U5P       0.1178
     25 H4         40.5100    7.4386   15.1819 H           1 U5P       0.0997
     26 H5         37.8031    8.4292   14.2412 H           1 U5P       0.0676
     27 H6         38.3581   10.0924   15.5728 H           1 U5P       0.2101
     28 H7         36.7519    7.3688   15.9407 H           1 U5P       0.0648
     29 H8         39.3309    6.3506   17.1715 H           1 U5P       0.0650
     30 H9         38.7175    8.5633   17.5969 H           1 U5P       0.2100
     31 H10        37.0496    4.7157   16.0071 H           1 U5P       0.0639
     32 H11        36.8959    5.3866   17.6176 H           1 U5P       0.0639
@<TRIPOS>BOND
     1     1     2  am
     2     1     6   1
     3     1     9   1
     4     2     3  am
     5     2     7   2
     6     3     4  am
     7     4     5   1
     8     4     8   2
     9     5     6   2
    10     9    10   1
    11     9    15   1
    12    10    11   1
    13    10    12   1
    14    12    13   1
    15    12    14   1
    16    13    15   1
    17    13    16   1
    18    16    17   1
    19    17    18   1
    20    18    19  ar
    21    18    20  ar
    22    18    21  ar
    23     3    22   1
    24     5    23   1
    25     6    24   1
    26     9    25   1
    27    10    26   1
    28    11    27   1
    29    12    28   1
    30    13    29   1
    31    14    30   1
    32    16    31   1
    33    16    32   1
@<TRIPOS>SUBSTRUCTURE
     1  U5P      2

