@<TRIPOS>MOLECULE
3dxg_ligand_058
    32    33
SMALL
GAST_HUCK
****
This file was generated by PARSER (from files_GN.cpp)

@<TRIPOS>ATOM
      1 N1         41.2751    5.8735    9.7830 N.am        1 U5P      -0.1592
      2 C2         41.2304    7.1980    9.4859 C.2         1 U5P       0.3328
      3 N3         41.7303    7.6405    8.3312 N.am        1 U5P      -0.1865
      4 C4         42.2969    6.8235    7.4465 C.2         1 U5P       0.1822
      5 C5         42.4370    5.5049    7.7384 C.2         1 U5P       0.0062
      6 C6         41.9456    5.0567    8.9099 C.2         1 U5P       0.0591
      7 O2         40.7796    8.0621   10.2215 O.2         1 U5P      -0.3815
      8 O4         42.7197    7.2785    6.3969 O.2         1 U5P      -0.4124
      9 C1'        40.7236    5.2815   11.0022 C.3         1 U5P       0.2059
     10 C2'        39.6043    6.0368   11.7677 C.3         1 U5P       0.1387
     11 O2'        40.1455    6.9065   12.7720 O.3         1 U5P      -0.3836
     12 C3'        38.7012    4.9416   12.3622 C.3         1 U5P       0.1149
     13 C4'        39.3448    3.6167   11.9034 C.3         1 U5P       0.1182
     14 O3'        38.5768    4.9764   13.7917 O.3         1 U5P      -0.3864
     15 O4'        40.1124    3.9923   10.7612 O.3         1 U5P      -0.3363
     16 C5'        38.3567    2.4754   11.5563 C.3         1 U5P       0.1072
     17 O5'        37.0680    2.7211   12.1658 O.3         1 U5P      -0.2734
     18 P          36.3088    1.5711   12.9083 P.3         1 U5P       0.2008
     19 O1P        35.1640    2.2275   13.5016 O.co2       1 U5P      -0.5537
     20 O2P        37.0955    1.0199   13.9813 O.co2       1 U5P      -0.5537
     21 O3P        35.8351    0.5501   11.9996 O.co2       1 U5P      -0.5537
     22 H1         41.6670    8.5874    8.1236 H           1 U5P       0.2259
     23 H2         42.9060    4.8892    7.1202 H           1 U5P       0.0258
     24 H3         42.0890    4.0917    9.1244 H           1 U5P       0.1178
     25 H4         41.5636    5.1139   11.6887 H           1 U5P       0.0997
     26 H5         39.0104    6.6354   11.0737 H           1 U5P       0.0676
     27 H6         39.3916    7.4590   13.0672 H           1 U5P       0.2101
     28 H7         37.6966    5.0469   11.9374 H           1 U5P       0.0648
     29 H8         40.0267    3.2619   12.6767 H           1 U5P       0.0650
     30 H9         38.0704    5.7895   13.9946 H           1 U5P       0.2100
     31 H10        38.8094    1.5105   11.8292 H           1 U5P       0.0639
     32 H11        38.1759    2.4555   10.4773 H           1 U5P       0.0639
@<TRIPOS>BOND
     1     1     2  am
     2     1     6   1
     3     1     9   1
     4     2     3  am
     5     2     7   2
     6     3     4  am
     7     4     5   1
     8     4     8   2
     9     5     6   2
    10     9    10   1
    11     9    15   1
    12    10    11   1
    13    10    12   1
    14    12    13   1
    15    12    14   1
    16    13    15   1
    17    13    16   1
    18    16    17   1
    19    17    18   1
    20    18    19  ar
    21    18    20  ar
    22    18    21  ar
    23     3    22   1
    24     5    23   1
    25     6    24   1
    26     9    25   1
    27    10    26   1
    28    11    27   1
    29    12    28   1
    30    13    29   1
    31    14    30   1
    32    16    31   1
    33    16    32   1
@<TRIPOS>SUBSTRUCTURE
     1  U5P      2

