@<TRIPOS>MOLECULE
3dxg_ligand_005
    32    33
SMALL
GAST_HUCK
****
This file was generated by PARSER (from files_GN.cpp)

@<TRIPOS>ATOM
      1 N1         39.8315    7.2549   13.2265 N.am        1 U5P      -0.1592
      2 C2         38.8793    6.9525   12.3138 C.2         1 U5P       0.3328
      3 N3         39.2036    6.7381   11.0412 N.am        1 U5P      -0.1865
      4 C4         40.4649    6.7677   10.6330 C.2         1 U5P       0.1822
      5 C5         41.4616    7.0637   11.5142 C.2         1 U5P       0.0062
      6 C6         41.1287    7.3105   12.7972 C.2         1 U5P       0.0591
      7 O2         37.6905    6.8549   12.5680 O.2         1 U5P      -0.3815
      8 O4         40.7025    6.5453    9.4552 O.2         1 U5P      -0.4124
      9 C1'        39.5083    7.4523   14.6366 C.3         1 U5P       0.2059
     10 C2'        38.3053    8.3775   14.9270 C.3         1 U5P       0.1387
     11 O2'        38.6458    9.7509   14.8363 O.3         1 U5P      -0.3836
     12 C3'        37.8205    7.8720   16.2927 C.3         1 U5P       0.1149
     13 C4'        38.1428    6.3618   16.2133 C.3         1 U5P       0.1182
     14 O3'        38.5290    8.4786   17.3705 O.3         1 U5P      -0.3864
     15 O4'        39.2107    6.1983   15.2576 O.3         1 U5P      -0.3363
     16 C5'        36.9382    5.4912   15.7629 C.3         1 U5P       0.1072
     17 O5'        37.4358    4.3040   15.1074 O.3         1 U5P      -0.2734
     18 P          36.6455    3.7882   13.8623 P.3         1 U5P       0.2008
     19 O1P        35.3005    3.3664   14.1690 O.co2       1 U5P      -0.5537
     20 O2P        37.3713    2.6822   13.2889 O.co2       1 U5P      -0.5537
     21 O3P        36.5849    4.8146   12.8477 O.co2       1 U5P      -0.5537
     22 H1         38.4957    6.5558   10.4025 H           1 U5P       0.2259
     23 H2         42.4081    7.1032   11.2165 H           1 U5P       0.0258
     24 H3         41.8599    7.5320   13.4252 H           1 U5P       0.1178
     25 H4         40.3651    7.8552   15.1765 H           1 U5P       0.0997
     26 H5         37.5073    8.2251   14.2050 H           1 U5P       0.0676
     27 H6         38.8155   10.0657   15.7640 H           1 U5P       0.2101
     28 H7         36.7555    8.0700   16.4395 H           1 U5P       0.0648
     29 H8         38.4979    5.9922   17.1783 H           1 U5P       0.0650
     30 H9         37.9546    9.2097   17.6817 H           1 U5P       0.2100
     31 H10        36.2937    6.0939   15.1127 H           1 U5P       0.0639
     32 H11        36.3528    5.1974   16.6428 H           1 U5P       0.0639
@<TRIPOS>BOND
     1     1     2  am
     2     1     6   1
     3     1     9   1
     4     2     3  am
     5     2     7   2
     6     3     4  am
     7     4     5   1
     8     4     8   2
     9     5     6   2
    10     9    10   1
    11     9    15   1
    12    10    11   1
    13    10    12   1
    14    12    13   1
    15    12    14   1
    16    13    15   1
    17    13    16   1
    18    16    17   1
    19    17    18   1
    20    18    19  ar
    21    18    20  ar
    22    18    21  ar
    23     3    22   1
    24     5    23   1
    25     6    24   1
    26     9    25   1
    27    10    26   1
    28    11    27   1
    29    12    28   1
    30    13    29   1
    31    14    30   1
    32    16    31   1
    33    16    32   1
@<TRIPOS>SUBSTRUCTURE
     1  U5P      2

