@<TRIPOS>MOLECULE
3dxg_ligand_015
    32    33
SMALL
GAST_HUCK
****
This file was generated by PARSER (from files_GN.cpp)

@<TRIPOS>ATOM
      1 N1         39.2220    4.0612   11.7267 N.am        1 U5P      -0.1592
      2 C2         38.5247    5.2016   11.8978 C.2         1 U5P       0.3328
      3 N3         39.0448    6.3700   11.5525 N.am        1 U5P      -0.1865
      4 C4         40.2595    6.4577   11.0127 C.2         1 U5P       0.1822
      5 C5         40.9958    5.3302   10.8086 C.2         1 U5P       0.0062
      6 C6         40.4695    4.1455   11.1666 C.2         1 U5P       0.0591
      7 O2         37.3909    5.2314   12.3776 O.2         1 U5P      -0.3815
      8 O4         40.6895    7.5596   10.7168 O.2         1 U5P      -0.4124
      9 C1'        38.6272    2.7664   12.0163 C.3         1 U5P       0.2059
     10 C2'        37.8453    2.2090   10.8065 C.3         1 U5P       0.1387
     11 O2'        36.5816    2.8412   10.6063 O.3         1 U5P      -0.3836
     12 C3'        37.7506    0.7208   11.1675 C.3         1 U5P       0.1149
     13 C4'        39.1187    0.4817   11.8601 C.3         1 U5P       0.1182
     14 O3'        36.6787    0.4593   12.0808 O.3         1 U5P      -0.3864
     15 O4'        39.5659    1.7431   12.3930 O.3         1 U5P      -0.3363
     16 C5'        40.2039   -0.0693   10.8982 C.3         1 U5P       0.1072
     17 O5'        41.3033   -0.6026   11.6614 O.3         1 U5P      -0.2734
     18 P          42.4384   -1.3031   10.8472 P.3         1 U5P       0.2008
     19 O1P        42.9327   -2.3790   11.6646 O.co2       1 U5P      -0.5537
     20 O2P        43.5354   -0.3985   10.6393 O.co2       1 U5P      -0.5537
     21 O3P        42.0389   -1.8716    9.5903 O.co2       1 U5P      -0.5537
     22 H1         38.5306    7.1782   11.6898 H           1 U5P       0.2259
     23 H2         41.9003    5.3787   10.3976 H           1 U5P       0.0258
     24 H3         41.0069    3.3249   11.0020 H           1 U5P       0.1178
     25 H4         37.9451    2.8427   12.8721 H           1 U5P       0.0997
     26 H5         38.4368    2.3205    9.8900 H           1 U5P       0.0676
     27 H6         36.1838    2.3801    9.8339 H           1 U5P       0.2101
     28 H7         37.6003    0.1016   10.2745 H           1 U5P       0.0648
     29 H8         38.9926   -0.2314   12.6809 H           1 U5P       0.0650
     30 H9         35.8582    0.6106   11.5664 H           1 U5P       0.2100
     31 H10        40.5367    0.7293   10.2232 H           1 U5P       0.0639
     32 H11        39.7419   -0.8715   10.3149 H           1 U5P       0.0639
@<TRIPOS>BOND
     1     1     2  am
     2     1     6   1
     3     1     9   1
     4     2     3  am
     5     2     7   2
     6     3     4  am
     7     4     5   1
     8     4     8   2
     9     5     6   2
    10     9    10   1
    11     9    15   1
    12    10    11   1
    13    10    12   1
    14    12    13   1
    15    12    14   1
    16    13    15   1
    17    13    16   1
    18    16    17   1
    19    17    18   1
    20    18    19  ar
    21    18    20  ar
    22    18    21  ar
    23     3    22   1
    24     5    23   1
    25     6    24   1
    26     9    25   1
    27    10    26   1
    28    11    27   1
    29    12    28   1
    30    13    29   1
    31    14    30   1
    32    16    31   1
    33    16    32   1
@<TRIPOS>SUBSTRUCTURE
     1  U5P      2

