@<TRIPOS>MOLECULE
3dxg_ligand_023
    32    33
SMALL
GAST_HUCK
****
This file was generated by PARSER (from files_GN.cpp)

@<TRIPOS>ATOM
      1 N1         39.6994    6.0369   13.3885 N.am        1 U5P      -0.1592
      2 C2         38.7553    6.2876   12.4550 C.2         1 U5P       0.3328
      3 N3         39.1047    6.4700   11.1787 N.am        1 U5P      -0.1865
      4 C4         40.3750    6.4068   10.7900 C.2         1 U5P       0.1822
      5 C5         41.3558    6.1551   11.7011 C.2         1 U5P       0.0062
      6 C6         41.0037    5.9579   12.9831 C.2         1 U5P       0.0591
      7 O2         37.5635    6.3727   12.7145 O.2         1 U5P      -0.3815
      8 O4         40.6464    6.5934    9.6140 O.2         1 U5P      -0.4124
      9 C1'        39.3488    5.8515   14.7917 C.3         1 U5P       0.2059
     10 C2'        38.8032    4.4434   15.1060 C.3         1 U5P       0.1387
     11 O2'        37.4230    4.3047   14.7666 O.3         1 U5P      -0.3836
     12 C3'        39.0631    4.3129   16.6140 C.3         1 U5P       0.1149
     13 C4'        40.3376    5.1702   16.8158 C.3         1 U5P       0.1182
     14 O3'        37.9782    4.8442   17.3715 O.3         1 U5P      -0.3864
     15 O4'        40.4460    6.0684   15.6961 O.3         1 U5P      -0.3363
     16 C5'        41.6481    4.3456   16.9274 C.3         1 U5P       0.1072
     17 O5'        41.8437    3.5770   15.7192 O.3         1 U5P      -0.2734
     18 P          43.0995    2.6581   15.6837 P.3         1 U5P       0.2008
     19 O1P        44.3222    3.4003   15.8631 O.co2       1 U5P      -0.5537
     20 O2P        43.1584    2.0287   14.3895 O.co2       1 U5P      -0.5537
     21 O3P        43.0015    1.6125   16.6709 O.co2       1 U5P      -0.5537
     22 H1         38.4183    6.6585   10.5217 H           1 U5P       0.2259
     23 H2         42.3095    6.0965   11.4244 H           1 U5P       0.0258
     24 H3         41.7240    5.7453   13.6334 H           1 U5P       0.1178
     25 H4         38.5973    6.5949   15.0838 H           1 U5P       0.0997
     26 H5         39.3761    3.6821   14.5661 H           1 U5P       0.0676
     27 H6         37.0688    3.5983   15.3609 H           1 U5P       0.2101
     28 H7         39.2089    3.2676   16.9041 H           1 U5P       0.0648
     29 H8         40.2426    5.7788   17.7230 H           1 U5P       0.0650
     30 H9         37.2415    4.2134   17.2178 H           1 U5P       0.2100
     31 H10        41.5723    3.7019   17.8091 H           1 U5P       0.0639
     32 H11        42.4786    5.0422   17.0733 H           1 U5P       0.0639
@<TRIPOS>BOND
     1     1     2  am
     2     1     6   1
     3     1     9   1
     4     2     3  am
     5     2     7   2
     6     3     4  am
     7     4     5   1
     8     4     8   2
     9     5     6   2
    10     9    10   1
    11     9    15   1
    12    10    11   1
    13    10    12   1
    14    12    13   1
    15    12    14   1
    16    13    15   1
    17    13    16   1
    18    16    17   1
    19    17    18   1
    20    18    19  ar
    21    18    20  ar
    22    18    21  ar
    23     3    22   1
    24     5    23   1
    25     6    24   1
    26     9    25   1
    27    10    26   1
    28    11    27   1
    29    12    28   1
    30    13    29   1
    31    14    30   1
    32    16    31   1
    33    16    32   1
@<TRIPOS>SUBSTRUCTURE
     1  U5P      2

