@<TRIPOS>MOLECULE
3dxg_ligand_011
    32    33
SMALL
GAST_HUCK
****
This file was generated by PARSER (from files_GN.cpp)

@<TRIPOS>ATOM
      1 N1         38.9363    6.7745   14.4601 N.am        1 U5P      -0.1592
      2 C2         38.7673    7.7217   15.4119 C.2         1 U5P       0.3328
      3 N3         39.5305    8.8088   15.4311 N.am        1 U5P      -0.1865
      4 C4         40.5054    8.9839   14.5498 C.2         1 U5P       0.1822
      5 C5         40.7312    8.0634   13.5817 C.2         1 U5P       0.0062
      6 C6         39.9359    6.9726   13.5435 C.2         1 U5P       0.0591
      7 O2         37.9276    7.6567   16.3003 O.2         1 U5P      -0.3815
      8 O4         41.2003    9.9914   14.6299 O.2         1 U5P      -0.4124
      9 C1'        38.1342    5.5517   14.4505 C.3         1 U5P       0.2059
     10 C2'        36.6022    5.7539   14.5595 C.3         1 U5P       0.1387
     11 O2'        36.1516    5.7157   15.9130 O.3         1 U5P      -0.3836
     12 C3'        35.9796    4.6301   13.7022 C.3         1 U5P       0.1149
     13 C4'        37.1923    3.8295   13.1787 C.3         1 U5P       0.1182
     14 O3'        35.0630    3.7911   14.4000 O.3         1 U5P      -0.3864
     15 O4'        38.2663    4.7690   13.2508 O.3         1 U5P      -0.3363
     16 C5'        37.0358    3.2257   11.7453 C.3         1 U5P       0.1072
     17 O5'        38.2099    3.3162   10.9084 O.3         1 U5P      -0.2734
     18 P          39.4154    2.3815   11.2216 P.3         1 U5P       0.2008
     19 O1P        40.2032    2.8216   12.3423 O.co2       1 U5P      -0.5537
     20 O2P        40.2748    2.4050   10.0591 O.co2       1 U5P      -0.5537
     21 O3P        39.0016    1.0185   11.4116 O.co2       1 U5P      -0.5537
     22 H1         39.3790    9.4809   16.1151 H           1 U5P       0.2259
     23 H2         41.4553    8.1818   12.9146 H           1 U5P       0.0258
     24 H3         40.1209    6.3106   12.8297 H           1 U5P       0.1178
     25 H4         38.4791    4.9238   15.2793 H           1 U5P       0.0997
     26 H5         36.3366    6.7251   14.1384 H           1 U5P       0.0676
     27 H6         35.1961    5.9368   15.8792 H           1 U5P       0.2101
     28 H7         35.4319    5.0901   12.8791 H           1 U5P       0.0648
     29 H8         37.4291    3.0140   13.8702 H           1 U5P       0.0650
     30 H9         35.5209    3.5145   15.2207 H           1 U5P       0.2100
     31 H10        36.2705    3.7779   11.1995 H           1 U5P       0.0639
     32 H11        36.6657    2.1973   11.8145 H           1 U5P       0.0639
@<TRIPOS>BOND
     1     1     2  am
     2     1     6   1
     3     1     9   1
     4     2     3  am
     5     2     7   2
     6     3     4  am
     7     4     5   1
     8     4     8   2
     9     5     6   2
    10     9    10   1
    11     9    15   1
    12    10    11   1
    13    10    12   1
    14    12    13   1
    15    12    14   1
    16    13    15   1
    17    13    16   1
    18    16    17   1
    19    17    18   1
    20    18    19  ar
    21    18    20  ar
    22    18    21  ar
    23     3    22   1
    24     5    23   1
    25     6    24   1
    26     9    25   1
    27    10    26   1
    28    11    27   1
    29    12    28   1
    30    13    29   1
    31    14    30   1
    32    16    31   1
    33    16    32   1
@<TRIPOS>SUBSTRUCTURE
     1  U5P      2

