@<TRIPOS>MOLECULE
3dxg_ligand_019
    32    33
SMALL
GAST_HUCK
****
This file was generated by PARSER (from files_GN.cpp)

@<TRIPOS>ATOM
      1 N1         40.4580    2.2733   11.1045 N.am        1 U5P      -0.1592
      2 C2         40.9567    3.5387   11.0662 C.2         1 U5P       0.3328
      3 N3         42.2251    3.7659   11.3976 N.am        1 U5P      -0.1865
      4 C4         43.0486    2.7818   11.7601 C.2         1 U5P       0.1822
      5 C5         42.5961    1.4988   11.7812 C.2         1 U5P       0.0062
      6 C6         41.3214    1.2595   11.4184 C.2         1 U5P       0.0591
      7 O2         40.3199    4.5339   10.7267 O.2         1 U5P      -0.3815
      8 O4         44.2151    3.0458   12.0211 O.2         1 U5P      -0.4124
      9 C1'        39.0754    1.9370   10.7894 C.3         1 U5P       0.2059
     10 C2'        38.4587    0.8535   11.7140 C.3         1 U5P       0.1387
     11 O2'        38.7585   -0.4997   11.3593 O.3         1 U5P      -0.3836
     12 C3'        36.9606    1.1265   11.6281 C.3         1 U5P       0.1149
     13 C4'        36.9306    2.6662   11.4858 C.3         1 U5P       0.1182
     14 O3'        36.3348    0.4768   10.5153 O.3         1 U5P      -0.3864
     15 O4'        38.1446    3.0485   10.8114 O.3         1 U5P      -0.3363
     16 C5'        36.8137    3.3937   12.8560 C.3         1 U5P       0.1072
     17 O5'        36.2872    4.7251   12.6614 O.3         1 U5P      -0.2734
     18 P          35.1937    5.2214   13.6700 P.3         1 U5P       0.2008
     19 O1P        34.2270    4.1718   13.9191 O.co2       1 U5P      -0.5537
     20 O2P        34.4533    6.2987   13.0550 O.co2       1 U5P      -0.5537
     21 O3P        35.7332    5.7116   14.9228 O.co2       1 U5P      -0.5537
     22 H1         42.5734    4.6789   11.3563 H           1 U5P       0.2259
     23 H2         43.2046    0.7519   12.0305 H           1 U5P       0.0258
     24 H3         41.0247    0.3110   11.3864 H           1 U5P       0.1178
     25 H4         39.0548    1.5594    9.7570 H           1 U5P       0.0997
     26 H5         38.8052    1.0234   12.7404 H           1 U5P       0.0676
     27 H6         38.5334   -0.5760   10.4140 H           1 U5P       0.2101
     28 H7         36.4694    0.7527   12.5291 H           1 U5P       0.0648
     29 H8         36.0728    2.9555   10.8593 H           1 U5P       0.0650
     30 H9         36.3897    1.1087    9.7602 H           1 U5P       0.2100
     31 H10        37.7959    3.4690   13.3390 H           1 U5P       0.0639
     32 H11        36.1471    2.7961   13.4896 H           1 U5P       0.0639
@<TRIPOS>BOND
     1     1     2  am
     2     1     6   1
     3     1     9   1
     4     2     3  am
     5     2     7   2
     6     3     4  am
     7     4     5   1
     8     4     8   2
     9     5     6   2
    10     9    10   1
    11     9    15   1
    12    10    11   1
    13    10    12   1
    14    12    13   1
    15    12    14   1
    16    13    15   1
    17    13    16   1
    18    16    17   1
    19    17    18   1
    20    18    19  ar
    21    18    20  ar
    22    18    21  ar
    23     3    22   1
    24     5    23   1
    25     6    24   1
    26     9    25   1
    27    10    26   1
    28    11    27   1
    29    12    28   1
    30    13    29   1
    31    14    30   1
    32    16    31   1
    33    16    32   1
@<TRIPOS>SUBSTRUCTURE
     1  U5P      2

