@<TRIPOS>MOLECULE
3dxg_ligand_074
    32    33
SMALL
GAST_HUCK
****
This file was generated by PARSER (from files_GN.cpp)

@<TRIPOS>ATOM
      1 N1         35.4037   -4.7410   13.4298 N.am        1 U5P      -0.1592
      2 C2         34.3643   -4.1219   12.8156 C.2         1 U5P       0.3328
      3 N3         33.3081   -4.8237   12.4177 N.am        1 U5P      -0.1865
      4 C4         33.2348   -6.1392   12.5885 C.2         1 U5P       0.1822
      5 C5         34.2613   -6.8066   13.1872 C.2         1 U5P       0.0062
      6 C6         35.3296   -6.1009   13.6005 C.2         1 U5P       0.0591
      7 O2         34.3280   -2.9186   12.5999 O.2         1 U5P      -0.3815
      8 O4         32.2444   -6.7344   12.2011 O.2         1 U5P      -0.4124
      9 C1'        36.5655   -3.9789   13.8827 C.3         1 U5P       0.2059
     10 C2'        36.1846   -2.8831   14.9175 C.3         1 U5P       0.1387
     11 O2'        36.9667   -1.7040   14.7298 O.3         1 U5P      -0.3836
     12 C3'        36.5130   -3.5605   16.2441 C.3         1 U5P       0.1149
     13 C4'        37.7596   -4.3878   15.8749 C.3         1 U5P       0.1182
     14 O3'        36.7310   -2.6524   17.3213 O.3         1 U5P      -0.3864
     15 O4'        37.5958   -4.7732   14.5042 O.3         1 U5P      -0.3363
     16 C5'        37.9866   -5.6271   16.7816 C.3         1 U5P       0.1072
     17 O5'        38.6241   -6.7435   16.1102 O.3         1 U5P      -0.2734
     18 P          40.1804   -6.7130   15.9865 P.3         1 U5P       0.2008
     19 O1P        40.6640   -5.4687   15.4557 O.co2       1 U5P      -0.5537
     20 O2P        40.6931   -7.8061   15.2000 O.co2       1 U5P      -0.5537
     21 O3P        40.7229   -6.8540   17.2985 O.co2       1 U5P      -0.5537
     22 H1         32.5684   -4.3604   11.9849 H           1 U5P       0.2259
     23 H2         34.2210   -7.7938   13.3227 H           1 U5P       0.0258
     24 H3         36.0665   -6.6018   14.0442 H           1 U5P       0.1178
     25 H4         37.0304   -3.5172   13.0069 H           1 U5P       0.0997
     26 H5         35.1273   -2.6020   14.8804 H           1 U5P       0.0676
     27 H6         36.6575   -1.3210   13.8820 H           1 U5P       0.2101
     28 H7         35.6801   -4.2206   16.5199 H           1 U5P       0.0648
     29 H8         38.6414   -3.7456   15.9373 H           1 U5P       0.0650
     30 H9         37.3262   -1.9633   16.9611 H           1 U5P       0.2100
     31 H10        37.0000   -6.0093   17.0882 H           1 U5P       0.0639
     32 H11        38.5048   -5.3402   17.6995 H           1 U5P       0.0639
@<TRIPOS>BOND
     1     1     2  am
     2     1     6   1
     3     1     9   1
     4     2     3  am
     5     2     7   2
     6     3     4  am
     7     4     5   1
     8     4     8   2
     9     5     6   2
    10     9    10   1
    11     9    15   1
    12    10    11   1
    13    10    12   1
    14    12    13   1
    15    12    14   1
    16    13    15   1
    17    13    16   1
    18    16    17   1
    19    17    18   1
    20    18    19  ar
    21    18    20  ar
    22    18    21  ar
    23     3    22   1
    24     5    23   1
    25     6    24   1
    26     9    25   1
    27    10    26   1
    28    11    27   1
    29    12    28   1
    30    13    29   1
    31    14    30   1
    32    16    31   1
    33    16    32   1
@<TRIPOS>SUBSTRUCTURE
     1  U5P      2

