@<TRIPOS>MOLECULE
3dxg_ligand_031
    32    33
SMALL
GAST_HUCK
****
This file was generated by PARSER (from files_GN.cpp)

@<TRIPOS>ATOM
      1 N1         40.4725    3.8978   11.1092 N.am        1 U5P      -0.1592
      2 C2         41.4138    4.4719   10.3304 C.2         1 U5P       0.3328
      3 N3         41.3817    5.7843   10.0863 N.am        1 U5P      -0.1865
      4 C4         40.4561    6.5737   10.6313 C.2         1 U5P       0.1822
      5 C5         39.4962    6.0404   11.4321 C.2         1 U5P       0.0062
      6 C6         39.5153    4.7148   11.6587 C.2         1 U5P       0.0591
      7 O2         42.3436    3.8459    9.8364 O.2         1 U5P      -0.3815
      8 O4         40.4975    7.7746   10.4062 O.2         1 U5P      -0.4124
      9 C1'        40.4673    2.4700   11.4060 C.3         1 U5P       0.2059
     10 C2'        40.3575    1.5171   10.1842 C.3         1 U5P       0.1387
     11 O2'        39.0169    1.0482   10.0172 O.3         1 U5P      -0.3836
     12 C3'        41.3606    0.3806   10.5003 C.3         1 U5P       0.1149
     13 C4'        41.7828    0.6528   11.9621 C.3         1 U5P       0.1182
     14 O3'        40.8185   -0.9369   10.3461 O.3         1 U5P      -0.3864
     15 O4'        41.6674    2.0814   12.0967 O.3         1 U5P      -0.3363
     16 C5'        43.2090    0.1637   12.3505 C.3         1 U5P       0.1072
     17 O5'        43.2525   -0.5603   13.5984 O.3         1 U5P      -0.2734
     18 P          43.1566    0.2399   14.9377 P.3         1 U5P       0.2008
     19 O1P        43.2409   -0.7384   15.9907 O.co2       1 U5P      -0.5537
     20 O2P        41.9015    0.9305   15.0795 O.co2       1 U5P      -0.5537
     21 O3P        44.2675    1.1449   15.0868 O.co2       1 U5P      -0.5537
     22 H1         42.0561    6.1835    9.5139 H           1 U5P       0.2259
     23 H2         38.7943    6.6196   11.8414 H           1 U5P       0.0258
     24 H3         38.8111    4.3380   12.2480 H           1 U5P       0.1178
     25 H4         39.6429    2.2246   12.0844 H           1 U5P       0.0997
     26 H5         40.6545    2.0148    9.2625 H           1 U5P       0.0676
     27 H6         39.0513    0.3022    9.3788 H           1 U5P       0.2101
     28 H7         42.2351    0.4662    9.8422 H           1 U5P       0.0648
     29 H8         41.0557    0.1768   12.6313 H           1 U5P       0.0650
     30 H9         40.0494   -0.9705   10.9576 H           1 U5P       0.2100
     31 H10        43.9139    0.9975   12.3388 H           1 U5P       0.0639
     32 H11        43.5573   -0.5368   11.5958 H           1 U5P       0.0639
@<TRIPOS>BOND
     1     1     2  am
     2     1     6   1
     3     1     9   1
     4     2     3  am
     5     2     7   2
     6     3     4  am
     7     4     5   1
     8     4     8   2
     9     5     6   2
    10     9    10   1
    11     9    15   1
    12    10    11   1
    13    10    12   1
    14    12    13   1
    15    12    14   1
    16    13    15   1
    17    13    16   1
    18    16    17   1
    19    17    18   1
    20    18    19  ar
    21    18    20  ar
    22    18    21  ar
    23     3    22   1
    24     5    23   1
    25     6    24   1
    26     9    25   1
    27    10    26   1
    28    11    27   1
    29    12    28   1
    30    13    29   1
    31    14    30   1
    32    16    31   1
    33    16    32   1
@<TRIPOS>SUBSTRUCTURE
     1  U5P      2

