@<TRIPOS>MOLECULE
3dxg_ligand_067
    32    33
SMALL
GAST_HUCK
****
This file was generated by PARSER (from files_GN.cpp)

@<TRIPOS>ATOM
      1 N1         41.7971    2.9304   13.4755 N.am        1 U5P      -0.1592
      2 C2         43.0460    3.3029   13.1126 C.2         1 U5P       0.3328
      3 N3         43.6394    4.3332   13.7172 N.am        1 U5P      -0.1865
      4 C4         43.0295    5.0303   14.6698 C.2         1 U5P       0.1822
      5 C5         41.7650    4.7036   15.0534 C.2         1 U5P       0.0062
      6 C6         41.1692    3.6540   14.4493 C.2         1 U5P       0.0591
      7 O2         43.6915    2.7649   12.2240 O.2         1 U5P      -0.3815
      8 O4         43.6184    5.9667   15.1914 O.2         1 U5P      -0.4124
      9 C1'        41.0628    1.8457   12.8427 C.3         1 U5P       0.2059
     10 C2'        40.1635    2.3328   11.6816 C.3         1 U5P       0.1387
     11 O2'        38.8584    2.6847   12.1405 O.3         1 U5P      -0.3836
     12 C3'        40.1555    1.1683   10.6740 C.3         1 U5P       0.1149
     13 C4'        41.0677    0.1051   11.3264 C.3         1 U5P       0.1182
     14 O3'        38.8511    0.6516   10.4084 O.3         1 U5P      -0.3864
     15 O4'        41.8812    0.8298   12.2549 O.3         1 U5P      -0.3363
     16 C5'        41.9457   -0.6610   10.3056 C.3         1 U5P       0.1072
     17 O5'        42.5980   -1.8436   10.8120 O.3         1 U5P      -0.2734
     18 P          44.0775   -1.7713   11.2744 P.3         1 U5P       0.2008
     19 O1P        44.6933   -2.9730   10.7570 O.co2       1 U5P      -0.5537
     20 O2P        44.2307   -1.8162   12.7133 O.co2       1 U5P      -0.5537
     21 O3P        44.8012   -0.6635   10.7063 O.co2       1 U5P      -0.5537
     22 H1         44.5378    4.5886   13.4496 H           1 U5P       0.2259
     23 H2         41.2862    5.2251   15.7514 H           1 U5P       0.0258
     24 H3         40.2446    3.4207   14.7406 H           1 U5P       0.1178
     25 H4         40.4511    1.3363   13.6003 H           1 U5P       0.0997
     26 H5         40.6091    3.2158   11.2110 H           1 U5P       0.0676
     27 H6         38.9864    3.4730   12.7114 H           1 U5P       0.2101
     28 H7         40.5759    1.5205    9.7290 H           1 U5P       0.0648
     29 H8         40.4625   -0.6268   11.8748 H           1 U5P       0.0650
     30 H9         38.9728   -0.0337    9.7148 H           1 U5P       0.2100
     31 H10        42.6718    0.0144    9.8434 H           1 U5P       0.0639
     32 H11        41.2864   -1.0094    9.5100 H           1 U5P       0.0639
@<TRIPOS>BOND
     1     1     2  am
     2     1     6   1
     3     1     9   1
     4     2     3  am
     5     2     7   2
     6     3     4  am
     7     4     5   1
     8     4     8   2
     9     5     6   2
    10     9    10   1
    11     9    15   1
    12    10    11   1
    13    10    12   1
    14    12    13   1
    15    12    14   1
    16    13    15   1
    17    13    16   1
    18    16    17   1
    19    17    18   1
    20    18    19  ar
    21    18    20  ar
    22    18    21  ar
    23     3    22   1
    24     5    23   1
    25     6    24   1
    26     9    25   1
    27    10    26   1
    28    11    27   1
    29    12    28   1
    30    13    29   1
    31    14    30   1
    32    16    31   1
    33    16    32   1
@<TRIPOS>SUBSTRUCTURE
     1  U5P      2

