@<TRIPOS>MOLECULE
3dxg_ligand_000
    32    33
SMALL
GAST_HUCK
****
This file was generated by PARSER (from files_GN.cpp)

@<TRIPOS>ATOM
      1 N1         36.5451    2.0098   11.6929 N.am        1 U5P      -0.1592
      2 C2         37.0232    1.3694   10.5942 C.2         1 U5P       0.3328
      3 N3         36.7218    0.0953   10.3710 N.am        1 U5P      -0.1865
      4 C4         35.9515   -0.6007   11.2070 C.2         1 U5P       0.1822
      5 C5         35.4508   -0.0054   12.3241 C.2         1 U5P       0.0062
      6 C6         35.7443    1.2914   12.5430 C.2         1 U5P       0.0591
      7 O2         37.7280    1.8933    9.7353 O.2         1 U5P      -0.3815
      8 O4         35.7002   -1.7693   10.9466 O.2         1 U5P      -0.4124
      9 C1'        36.7733    3.4341   11.9707 C.3         1 U5P       0.2059
     10 C2'        37.1932    3.7808   13.4290 C.3         1 U5P       0.1387
     11 O2'        36.0717    4.0019   14.2886 O.3         1 U5P      -0.3836
     12 C3'        38.0484    5.0481   13.2560 C.3         1 U5P       0.1149
     13 C4'        38.7182    4.7886   11.8929 C.3         1 U5P       0.1182
     14 O3'        37.2283    6.2171   13.1620 O.3         1 U5P      -0.3864
     15 O4'        37.7520    4.0796   11.1173 O.3         1 U5P      -0.3363
     16 C5'        40.0485    3.9757   11.9678 C.3         1 U5P       0.1072
     17 O5'        41.2160    4.8390   12.0476 O.3         1 U5P      -0.2734
     18 P          41.8845    5.2426   10.6930 P.3         1 U5P       0.2008
     19 O1P        42.5796    4.1132   10.1176 O.co2       1 U5P      -0.5537
     20 O2P        42.8714    6.2620   10.9565 O.co2       1 U5P      -0.5537
     21 O3P        40.9449    5.7684    9.7302 O.co2       1 U5P      -0.5537
     22 H1         37.0646   -0.3393    9.5790 H           1 U5P       0.2259
     23 H2         34.8764   -0.5108   12.9511 H           1 U5P       0.0258
     24 H3         35.3419    1.7227   13.3409 H           1 U5P       0.1178
     25 H4         35.8360    3.9565   11.7548 H           1 U5P       0.0997
     26 H5         37.8072    2.9652   13.8355 H           1 U5P       0.0676
     27 H6         36.2772    3.5488   15.1347 H           1 U5P       0.2101
     28 H7         38.7748    5.1693   14.0719 H           1 U5P       0.0648
     29 H8         38.9115    5.7356   11.3902 H           1 U5P       0.0650
     30 H9         37.3058    6.6708   14.0380 H           1 U5P       0.2100
     31 H10        40.1076    3.2644   11.1234 H           1 U5P       0.0639
     32 H11        40.0562    3.3586   12.8678 H           1 U5P       0.0639
@<TRIPOS>BOND
     1     1     2  am
     2     1     6   1
     3     1     9   1
     4     2     3  am
     5     2     7   2
     6     3     4  am
     7     4     5   1
     8     4     8   2
     9     5     6   2
    10     9    10   1
    11     9    15   1
    12    10    11   1
    13    10    12   1
    14    12    13   1
    15    12    14   1
    16    13    15   1
    17    13    16   1
    18    16    17   1
    19    17    18   1
    20    18    19  ar
    21    18    20  ar
    22    18    21  ar
    23     3    22   1
    24     5    23   1
    25     6    24   1
    26     9    25   1
    27    10    26   1
    28    11    27   1
    29    12    28   1
    30    13    29   1
    31    14    30   1
    32    16    31   1
    33    16    32   1
@<TRIPOS>SUBSTRUCTURE
     1  U5P      2

