@<TRIPOS>MOLECULE
3dxg_ligand_006
    32    33
SMALL
GAST_HUCK
****
This file was generated by PARSER (from files_GN.cpp)

@<TRIPOS>ATOM
      1 N1         40.0106    3.0647   12.9083 N.am        1 U5P      -0.1592
      2 C2         39.8765    3.5365   11.6516 C.2         1 U5P       0.3328
      3 N3         40.9452    3.8453   10.9257 N.am        1 U5P      -0.1865
      4 C4         42.1764    3.6745   11.3986 C.2         1 U5P       0.1822
      5 C5         42.3664    3.1699   12.6455 C.2         1 U5P       0.0062
      6 C6         41.2808    2.8724   13.3881 C.2         1 U5P       0.0591
      7 O2         38.7862    3.7059   11.1065 O.2         1 U5P      -0.3815
      8 O4         43.1250    3.9394   10.6725 O.2         1 U5P      -0.4124
      9 C1'        38.8602    2.7450   13.7435 C.3         1 U5P       0.2059
     10 C2'        37.9078    3.9417   14.0401 C.3         1 U5P       0.1387
     11 O2'        37.9014    4.2970   15.4239 O.3         1 U5P      -0.3836
     12 C3'        36.5359    3.4344   13.5551 C.3         1 U5P       0.1149
     13 C4'        36.7229    1.9019   13.5402 C.3         1 U5P       0.1182
     14 O3'        35.4277    3.8487   14.3500 O.3         1 U5P      -0.3864
     15 O4'        38.0760    1.7320   13.1012 O.3         1 U5P      -0.3363
     16 C5'        35.7648    1.1482   12.5833 C.3         1 U5P       0.1072
     17 O5'        36.2468   -0.2065   12.4033 O.3         1 U5P      -0.2734
     18 P          36.3301   -0.7364   10.9435 P.3         1 U5P       0.2008
     19 O1P        36.8888   -2.0650   10.9679 O.co2       1 U5P      -0.5537
     20 O2P        37.2511    0.0817   10.1940 O.co2       1 U5P      -0.5537
     21 O3P        35.0545   -0.7799   10.2795 O.co2       1 U5P      -0.5537
     22 H1         40.8268    4.2031   10.0310 H           1 U5P       0.2259
     23 H2         43.2832    3.0179   13.0025 H           1 U5P       0.0258
     24 H3         41.4292    2.5010   14.2987 H           1 U5P       0.1178
     25 H4         39.1714    2.3114   14.7038 H           1 U5P       0.0997
     26 H5         38.1924    4.8367   13.4795 H           1 U5P       0.0676
     27 H6         37.5297    3.5243   15.9015 H           1 U5P       0.2101
     28 H7         36.3694    3.7967   12.5365 H           1 U5P       0.0648
     29 H8         36.6201    1.4849   14.5507 H           1 U5P       0.0650
     30 H9         35.6365    3.5475   15.2576 H           1 U5P       0.2100
     31 H10        35.6957    1.7182   11.6485 H           1 U5P       0.0639
     32 H11        34.7645    1.0995   13.0355 H           1 U5P       0.0639
@<TRIPOS>BOND
     1     1     2  am
     2     1     6   1
     3     1     9   1
     4     2     3  am
     5     2     7   2
     6     3     4  am
     7     4     5   1
     8     4     8   2
     9     5     6   2
    10     9    10   1
    11     9    15   1
    12    10    11   1
    13    10    12   1
    14    12    13   1
    15    12    14   1
    16    13    15   1
    17    13    16   1
    18    16    17   1
    19    17    18   1
    20    18    19  ar
    21    18    20  ar
    22    18    21  ar
    23     3    22   1
    24     5    23   1
    25     6    24   1
    26     9    25   1
    27    10    26   1
    28    11    27   1
    29    12    28   1
    30    13    29   1
    31    14    30   1
    32    16    31   1
    33    16    32   1
@<TRIPOS>SUBSTRUCTURE
     1  U5P      2

