@<TRIPOS>MOLECULE
3dxg_ligand_063
    32    33
SMALL
GAST_HUCK
****
This file was generated by PARSER (from files_GN.cpp)

@<TRIPOS>ATOM
      1 N1         37.0234    3.4800   12.6227 N.am        1 U5P      -0.1592
      2 C2         36.1181    3.4585   13.6310 C.2         1 U5P       0.3328
      3 N3         36.1110    4.4124   14.5591 N.am        1 U5P      -0.1865
      4 C4         36.9698    5.4250   14.5281 C.2         1 U5P       0.1822
      5 C5         37.8599    5.5270   13.5062 C.2         1 U5P       0.0062
      6 C6         37.8640    4.5652   12.5664 C.2         1 U5P       0.0591
      7 O2         35.2340    2.6203   13.7458 O.2         1 U5P      -0.3815
      8 O4         36.9259    6.2638   15.4115 O.2         1 U5P      -0.4124
      9 C1'        37.0726    2.4701   11.5629 C.3         1 U5P       0.2059
     10 C2'        38.4770    1.9474   11.1751 C.3         1 U5P       0.1387
     11 O2'        39.1954    2.8424   10.3269 O.3         1 U5P      -0.3836
     12 C3'        38.1737    0.6161   10.4645 C.3         1 U5P       0.1149
     13 C4'        36.8719    0.1408   11.1577 C.3         1 U5P       0.1182
     14 O3'        37.9792    0.8047    9.0585 O.3         1 U5P      -0.3864
     15 O4'        36.3581    1.2633   11.8851 O.3         1 U5P      -0.3363
     16 C5'        37.0586   -1.0380   12.1448 C.3         1 U5P       0.1072
     17 O5'        38.1876   -0.7994   13.0168 O.3         1 U5P      -0.2734
     18 P          38.4309   -1.8073   14.1718 P.3         1 U5P       0.2008
     19 O1P        39.8542   -1.9024   14.4128 O.co2       1 U5P      -0.5537
     20 O2P        37.9176   -3.1462   13.9722 O.co2       1 U5P      -0.5537
     21 O3P        37.8581   -1.2568   15.3819 O.co2       1 U5P      -0.5537
     22 H1         35.4619    4.3672   15.2761 H           1 U5P       0.2259
     23 H2         38.4775    6.3050   13.4386 H           1 U5P       0.0258
     24 H3         38.4929    4.6833   11.8085 H           1 U5P       0.1178
     25 H4         36.6020    2.9016   10.6712 H           1 U5P       0.0997
     26 H5         39.0645    1.7611   12.0822 H           1 U5P       0.0676
     27 H6         40.0330    2.3785   10.1131 H           1 U5P       0.2101
     28 H7         39.0047   -0.0821   10.5909 H           1 U5P       0.0648
     29 H8         36.1267   -0.1445   10.4101 H           1 U5P       0.0650
     30 H9         37.1659    1.3454    8.9597 H           1 U5P       0.2100
     31 H10        37.2294   -1.9504   11.5626 H           1 U5P       0.0639
     32 H11        36.1290   -1.1597   12.7156 H           1 U5P       0.0639
@<TRIPOS>BOND
     1     1     2  am
     2     1     6   1
     3     1     9   1
     4     2     3  am
     5     2     7   2
     6     3     4  am
     7     4     5   1
     8     4     8   2
     9     5     6   2
    10     9    10   1
    11     9    15   1
    12    10    11   1
    13    10    12   1
    14    12    13   1
    15    12    14   1
    16    13    15   1
    17    13    16   1
    18    16    17   1
    19    17    18   1
    20    18    19  ar
    21    18    20  ar
    22    18    21  ar
    23     3    22   1
    24     5    23   1
    25     6    24   1
    26     9    25   1
    27    10    26   1
    28    11    27   1
    29    12    28   1
    30    13    29   1
    31    14    30   1
    32    16    31   1
    33    16    32   1
@<TRIPOS>SUBSTRUCTURE
     1  U5P      2

