@<TRIPOS>MOLECULE
3dxg_ligand_045
    32    33
SMALL
GAST_HUCK
****
This file was generated by PARSER (from files_GN.cpp)

@<TRIPOS>ATOM
      1 N1         41.2455    5.9825   10.4916 N.am        1 U5P      -0.1592
      2 C2         41.1578    7.0819    9.7143 C.2         1 U5P       0.3328
      3 N3         41.5517    7.0373    8.4408 N.am        1 U5P      -0.1865
      4 C4         42.0235    5.9183    7.8996 C.2         1 U5P       0.1822
      5 C5         42.1342    4.7893    8.6458 C.2         1 U5P       0.0062
      6 C6         41.7533    4.8385    9.9347 C.2         1 U5P       0.0591
      7 O2         40.7313    8.1565   10.1153 O.2         1 U5P      -0.3815
      8 O4         42.3680    5.9276    6.7284 O.2         1 U5P      -0.4124
      9 C1'        40.7805    5.9908   11.8747 C.3         1 U5P       0.2059
     10 C2'        39.2597    5.7342   11.9937 C.3         1 U5P       0.1387
     11 O2'        38.4551    6.8962   11.7907 O.3         1 U5P      -0.3836
     12 C3'        39.1189    5.1609   13.4085 C.3         1 U5P       0.1149
     13 C4'        40.4644    4.4241   13.6148 C.3         1 U5P       0.1182
     14 O3'        38.9433    6.1986   14.3805 O.3         1 U5P      -0.3864
     15 O4'        41.4255    5.0111   12.7168 O.3         1 U5P      -0.3363
     16 C5'        40.4216    2.8734   13.4263 C.3         1 U5P       0.1072
     17 O5'        40.7621    2.4227   12.0979 O.3         1 U5P      -0.2734
     18 P          39.6969    1.8346   11.1274 P.3         1 U5P       0.2008
     19 O1P        40.4370    1.1024   10.1309 O.co2       1 U5P      -0.5537
     20 O2P        38.9904    2.8489   10.3886 O.co2       1 U5P      -0.5537
     21 O3P        38.7816    0.8842   11.7130 O.co2       1 U5P      -0.5537
     22 H1         41.4913    7.8364    7.8979 H           1 U5P       0.2259
     23 H2         42.4826    3.9449    8.2572 H           1 U5P       0.0258
     24 H3         41.8572    4.0143   10.4758 H           1 U5P       0.1178
     25 H4         41.0097    6.9594   12.3342 H           1 U5P       0.0997
     26 H5         38.9465    4.9779   11.2755 H           1 U5P       0.0676
     27 H6         38.2826    6.9238   10.8262 H           1 U5P       0.2101
     28 H7         38.2562    4.4904   13.4749 H           1 U5P       0.0648
     29 H8         40.8132    4.6276   14.6346 H           1 U5P       0.0650
     30 H9         39.7240    6.7864   14.2910 H           1 U5P       0.2100
     31 H10        39.4805    2.4649   13.8054 H           1 U5P       0.0639
     32 H11        41.2066    2.4635   14.0626 H           1 U5P       0.0639
@<TRIPOS>BOND
     1     1     2  am
     2     1     6   1
     3     1     9   1
     4     2     3  am
     5     2     7   2
     6     3     4  am
     7     4     5   1
     8     4     8   2
     9     5     6   2
    10     9    10   1
    11     9    15   1
    12    10    11   1
    13    10    12   1
    14    12    13   1
    15    12    14   1
    16    13    15   1
    17    13    16   1
    18    16    17   1
    19    17    18   1
    20    18    19  ar
    21    18    20  ar
    22    18    21  ar
    23     3    22   1
    24     5    23   1
    25     6    24   1
    26     9    25   1
    27    10    26   1
    28    11    27   1
    29    12    28   1
    30    13    29   1
    31    14    30   1
    32    16    31   1
    33    16    32   1
@<TRIPOS>SUBSTRUCTURE
     1  U5P      2

