@<TRIPOS>MOLECULE
3dxg_ligand_022
    32    33
SMALL
GAST_HUCK
****
This file was generated by PARSER (from files_GN.cpp)

@<TRIPOS>ATOM
      1 N1         40.9194    6.0699   10.4395 N.am        1 U5P      -0.1592
      2 C2         41.6597    7.1215   10.0150 C.2         1 U5P       0.3328
      3 N3         42.6988    6.9333    9.1943 N.am        1 U5P      -0.1865
      4 C4         42.9982    5.7282    8.7178 C.2         1 U5P       0.1822
      5 C5         42.2332    4.6578    9.0545 C.2         1 U5P       0.0062
      6 C6         41.2218    4.8366    9.9190 C.2         1 U5P       0.0591
      7 O2         41.4392    8.2789   10.3522 O.2         1 U5P      -0.3815
      8 O4         43.9705    5.5946    7.9815 O.2         1 U5P      -0.4124
      9 C1'        39.8177    6.2514   11.3873 C.3         1 U5P       0.2059
     10 C2'        39.2284    5.0171   12.1227 C.3         1 U5P       0.1387
     11 O2'        38.3462    4.2490   11.3097 O.3         1 U5P      -0.3836
     12 C3'        38.5384    5.6331   13.3471 C.3         1 U5P       0.1149
     13 C4'        39.3962    6.8963   13.6187 C.3         1 U5P       0.1182
     14 O3'        37.1855    5.9787   13.0422 O.3         1 U5P      -0.3864
     15 O4'        40.2286    7.1027   12.4710 O.3         1 U5P      -0.3363
     16 C5'        40.3195    6.7999   14.8569 C.3         1 U5P       0.1072
     17 O5'        41.2285    5.6891   14.6858 O.3         1 U5P      -0.2734
     18 P          42.3221    5.5159   15.7803 P.3         1 U5P       0.2008
     19 O1P        43.2683    6.6032   15.7323 O.co2       1 U5P      -0.5537
     20 O2P        43.0695    4.3287   15.4695 O.co2       1 U5P      -0.5537
     21 O3P        41.7840    5.3648   17.1001 O.co2       1 U5P      -0.5537
     22 H1         43.2495    7.6919    8.9418 H           1 U5P       0.2259
     23 H2         42.4163    3.7574    8.6650 H           1 U5P       0.0258
     24 H3         40.6771    4.0395   10.1464 H           1 U5P       0.1178
     25 H4         39.0054    6.7630   10.8564 H           1 U5P       0.0997
     26 H5         40.0373    4.3683   12.4712 H           1 U5P       0.0676
     27 H6         38.0256    3.5295   11.8958 H           1 U5P       0.2101
     28 H7         38.5268    4.9310   14.1896 H           1 U5P       0.0648
     29 H8         38.7438    7.7675   13.7395 H           1 U5P       0.0650
     30 H9         36.8384    6.3859   13.8616 H           1 U5P       0.2100
     31 H10        39.7055    6.6627   15.7487 H           1 U5P       0.0639
     32 H11        40.8643    7.7442   14.9470 H           1 U5P       0.0639
@<TRIPOS>BOND
     1     1     2  am
     2     1     6   1
     3     1     9   1
     4     2     3  am
     5     2     7   2
     6     3     4  am
     7     4     5   1
     8     4     8   2
     9     5     6   2
    10     9    10   1
    11     9    15   1
    12    10    11   1
    13    10    12   1
    14    12    13   1
    15    12    14   1
    16    13    15   1
    17    13    16   1
    18    16    17   1
    19    17    18   1
    20    18    19  ar
    21    18    20  ar
    22    18    21  ar
    23     3    22   1
    24     5    23   1
    25     6    24   1
    26     9    25   1
    27    10    26   1
    28    11    27   1
    29    12    28   1
    30    13    29   1
    31    14    30   1
    32    16    31   1
    33    16    32   1
@<TRIPOS>SUBSTRUCTURE
     1  U5P      2

