@<TRIPOS>MOLECULE
3dxg_ligand_018
    32    33
SMALL
GAST_HUCK
****
This file was generated by PARSER (from files_GN.cpp)

@<TRIPOS>ATOM
      1 N1         33.8777   -9.3399   13.6308 N.am        1 U5P      -0.1592
      2 C2         34.2344   -9.3505   14.9357 C.2         1 U5P       0.3328
      3 N3         33.7629  -10.2881   15.7514 N.am        1 U5P      -0.1865
      4 C4         32.9263  -11.2292   15.3226 C.2         1 U5P       0.1822
      5 C5         32.5211  -11.2420   14.0232 C.2         1 U5P       0.0062
      6 C6         32.9951  -10.2898   13.1981 C.2         1 U5P       0.0591
      7 O2         34.9901   -8.5370   15.4474 O.2         1 U5P      -0.3815
      8 O4         32.5260  -12.0643   16.1174 O.2         1 U5P      -0.4124
      9 C1'        34.3939   -8.3718   12.6727 C.3         1 U5P       0.2059
     10 C2'        34.0942   -6.9091   13.0406 C.3         1 U5P       0.1387
     11 O2'        32.7238   -6.5827   12.8259 O.3         1 U5P      -0.3836
     12 C3'        35.0866   -6.1343   12.1593 C.3         1 U5P       0.1149
     13 C4'        36.2763   -7.1242   12.0626 C.3         1 U5P       0.1182
     14 O3'        34.5532   -5.8612   10.8612 O.3         1 U5P      -0.3864
     15 O4'        35.8135   -8.4106   12.4944 O.3         1 U5P      -0.3363
     16 C5'        37.5147   -6.7179   12.9131 C.3         1 U5P       0.1072
     17 O5'        38.1324   -7.7326   13.7397 O.3         1 U5P      -0.2734
     18 P          39.4673   -8.3923   13.2740 P.3         1 U5P       0.2008
     19 O1P        40.5973   -7.5068   13.3924 O.co2       1 U5P      -0.5537
     20 O2P        39.3983   -8.9707   11.9567 O.co2       1 U5P      -0.5537
     21 O3P        39.6934   -9.4831   14.1865 O.co2       1 U5P      -0.5537
     22 H1         34.0436  -10.2859   16.6805 H           1 U5P       0.2259
     23 H2         31.9048  -11.9410   13.6868 H           1 U5P       0.0258
     24 H3         32.6900  -10.3054   12.2511 H           1 U5P       0.1178
     25 H4         33.9751   -8.5800   11.6797 H           1 U5P       0.0997
     26 H5         34.3366   -6.7369   14.0905 H           1 U5P       0.0676
     27 H6         32.6192   -5.6518   13.1304 H           1 U5P       0.2101
     28 H7         35.3675   -5.1806   12.6151 H           1 U5P       0.0648
     29 H8         36.5886   -7.2176   11.0238 H           1 U5P       0.0650
     30 H9         33.9034   -5.1293   10.9998 H           1 U5P       0.2100
     31 H10        37.2021   -5.9455   13.6173 H           1 U5P       0.0639
     32 H11        38.2684   -6.2575   12.2673 H           1 U5P       0.0639
@<TRIPOS>BOND
     1     1     2  am
     2     1     6   1
     3     1     9   1
     4     2     3  am
     5     2     7   2
     6     3     4  am
     7     4     5   1
     8     4     8   2
     9     5     6   2
    10     9    10   1
    11     9    15   1
    12    10    11   1
    13    10    12   1
    14    12    13   1
    15    12    14   1
    16    13    15   1
    17    13    16   1
    18    16    17   1
    19    17    18   1
    20    18    19  ar
    21    18    20  ar
    22    18    21  ar
    23     3    22   1
    24     5    23   1
    25     6    24   1
    26     9    25   1
    27    10    26   1
    28    11    27   1
    29    12    28   1
    30    13    29   1
    31    14    30   1
    32    16    31   1
    33    16    32   1
@<TRIPOS>SUBSTRUCTURE
     1  U5P      2

