@<TRIPOS>MOLECULE
3dxg_ligand_030
    32    33
SMALL
GAST_HUCK
****
This file was generated by PARSER (from files_GN.cpp)

@<TRIPOS>ATOM
      1 N1         35.7830   -7.7660   13.3585 N.am        1 U5P      -0.1592
      2 C2         35.1238   -6.8421   14.1016 C.2         1 U5P       0.3328
      3 N3         35.6391   -5.6243   14.2735 N.am        1 U5P      -0.1865
      4 C4         36.7944   -5.2714   13.7242 C.2         1 U5P       0.1822
      5 C5         37.5050   -6.1683   12.9886 C.2         1 U5P       0.0062
      6 C6         37.0018   -7.4067   12.8383 C.2         1 U5P       0.0591
      7 O2         34.0558   -7.0361   14.6558 O.2         1 U5P      -0.3815
      8 O4         37.2073   -4.1350   13.9113 O.2         1 U5P      -0.4124
      9 C1'        35.3197   -9.1231   13.0750 C.3         1 U5P       0.2059
     10 C2'        33.8948   -9.5920   13.4591 C.3         1 U5P       0.1387
     11 O2'        33.7586   -9.8817   14.8507 O.3         1 U5P      -0.3836
     12 C3'        33.7009  -10.8242   12.5687 C.3         1 U5P       0.1149
     13 C4'        34.4786  -10.4244   11.2931 C.3         1 U5P       0.1182
     14 O3'        34.2858  -11.9912   13.1533 O.3         1 U5P      -0.3864
     15 O4'        35.3779   -9.3685   11.6592 O.3         1 U5P      -0.3363
     16 C5'        33.5793   -9.8966   10.1444 C.3         1 U5P       0.1072
     17 O5'        34.3909   -9.4626    9.0322 O.3         1 U5P      -0.2734
     18 P          34.6317  -10.4596    7.8600 P.3         1 U5P       0.2008
     19 O1P        33.5833  -10.3036    6.8807 O.co2       1 U5P      -0.5537
     20 O2P        34.7290  -11.8458    8.2507 O.co2       1 U5P      -0.5537
     21 O3P        35.8699  -10.0857    7.2244 O.co2       1 U5P      -0.5537
     22 H1         35.1563   -4.9819   14.8220 H           1 U5P       0.2259
     23 H2         38.3733   -5.9181   12.5776 H           1 U5P       0.0258
     24 H3         37.5436   -8.0595   12.3167 H           1 U5P       0.1178
     25 H4         36.0284   -9.8080   13.5580 H           1 U5P       0.0997
     26 H5         33.1589   -8.8355   13.1695 H           1 U5P       0.0676
     27 H6         32.8040  -10.0676   14.9801 H           1 U5P       0.2101
     28 H7         32.6410  -11.0175   12.3815 H           1 U5P       0.0648
     29 H8         35.0651  -11.2687   10.9227 H           1 U5P       0.0650
     30 H9         33.7824  -12.1479   13.9810 H           1 U5P       0.2100
     31 H10        33.0494   -9.0139   10.5046 H           1 U5P       0.0639
     32 H11        32.8220  -10.6399    9.8736 H           1 U5P       0.0639
@<TRIPOS>BOND
     1     1     2  am
     2     1     6   1
     3     1     9   1
     4     2     3  am
     5     2     7   2
     6     3     4  am
     7     4     5   1
     8     4     8   2
     9     5     6   2
    10     9    10   1
    11     9    15   1
    12    10    11   1
    13    10    12   1
    14    12    13   1
    15    12    14   1
    16    13    15   1
    17    13    16   1
    18    16    17   1
    19    17    18   1
    20    18    19  ar
    21    18    20  ar
    22    18    21  ar
    23     3    22   1
    24     5    23   1
    25     6    24   1
    26     9    25   1
    27    10    26   1
    28    11    27   1
    29    12    28   1
    30    13    29   1
    31    14    30   1
    32    16    31   1
    33    16    32   1
@<TRIPOS>SUBSTRUCTURE
     1  U5P      2

