@<TRIPOS>MOLECULE
3dxg_ligand_004
    32    33
SMALL
GAST_HUCK
****
This file was generated by PARSER (from files_GN.cpp)

@<TRIPOS>ATOM
      1 N1         37.6227   -0.7800   11.8067 N.am        1 U5P      -0.1592
      2 C2         36.7869   -0.2636   10.8744 C.2         1 U5P       0.3328
      3 N3         37.0111    0.9535   10.3778 N.am        1 U5P      -0.1865
      4 C4         38.0390    1.6967   10.7836 C.2         1 U5P       0.1822
      5 C5         38.8977    1.2167   11.7256 C.2         1 U5P       0.0062
      6 C6         38.6824   -0.0177   12.2209 C.2         1 U5P       0.0591
      7 O2         35.7982   -0.8465   10.4463 O.2         1 U5P      -0.3815
      8 O4         38.1985    2.8113   10.3058 O.2         1 U5P      -0.4124
      9 C1'        37.4074   -2.0864   12.4147 C.3         1 U5P       0.2059
     10 C2'        36.3842   -2.0295   13.5648 C.3         1 U5P       0.1387
     11 O2'        36.9398   -1.4646   14.7532 O.3         1 U5P      -0.3836
     12 C3'        35.9804   -3.5055   13.7023 C.3         1 U5P       0.1149
     13 C4'        36.1747   -4.0555   12.2615 C.3         1 U5P       0.1182
     14 O3'        36.8270   -4.2048   14.6234 O.3         1 U5P      -0.3864
     15 O4'        36.8868   -3.0642   11.5003 O.3         1 U5P      -0.3363
     16 C5'        34.8456   -4.3924   11.5275 C.3         1 U5P       0.1072
     17 O5'        33.9365   -5.2464   12.2606 O.3         1 U5P      -0.2734
     18 P          34.3258   -6.7399   12.4806 P.3         1 U5P       0.2008
     19 O1P        33.1974   -7.3518   13.1343 O.co2       1 U5P      -0.5537
     20 O2P        35.4434   -6.8858   13.3776 O.co2       1 U5P      -0.5537
     21 O3P        34.5598   -7.4391   11.2446 O.co2       1 U5P      -0.5537
     22 H1         36.4123    1.3029    9.6987 H           1 U5P       0.2259
     23 H2         39.6605    1.7680   12.0496 H           1 U5P       0.0258
     24 H3         39.3102   -0.3582   12.9141 H           1 U5P       0.1178
     25 H4         38.3523   -2.5005   12.7969 H           1 U5P       0.0997
     26 H5         35.5140   -1.4321   13.2633 H           1 U5P       0.0676
     27 H6         36.1713   -1.0818   15.2245 H           1 U5P       0.2101
     28 H7         34.9496   -3.5889   14.0596 H           1 U5P       0.0648
     29 H8         36.8006   -4.9531   12.2806 H           1 U5P       0.0650
     30 H9         36.4283   -4.0584   15.5045 H           1 U5P       0.2100
     31 H10        35.0726   -4.8084   10.5381 H           1 U5P       0.0639
     32 H11        34.3043   -3.4546   11.3661 H           1 U5P       0.0639
@<TRIPOS>BOND
     1     1     2  am
     2     1     6   1
     3     1     9   1
     4     2     3  am
     5     2     7   2
     6     3     4  am
     7     4     5   1
     8     4     8   2
     9     5     6   2
    10     9    10   1
    11     9    15   1
    12    10    11   1
    13    10    12   1
    14    12    13   1
    15    12    14   1
    16    13    15   1
    17    13    16   1
    18    16    17   1
    19    17    18   1
    20    18    19  ar
    21    18    20  ar
    22    18    21  ar
    23     3    22   1
    24     5    23   1
    25     6    24   1
    26     9    25   1
    27    10    26   1
    28    11    27   1
    29    12    28   1
    30    13    29   1
    31    14    30   1
    32    16    31   1
    33    16    32   1
@<TRIPOS>SUBSTRUCTURE
     1  U5P      2

