@<TRIPOS>MOLECULE
3dxg_ligand_027
    32    33
SMALL
GAST_HUCK
****
This file was generated by PARSER (from files_GN.cpp)

@<TRIPOS>ATOM
      1 N1         40.7255    5.4463   11.6349 N.am        1 U5P      -0.1592
      2 C2         41.1304    6.3639   10.7256 C.2         1 U5P       0.3328
      3 N3         41.9116    5.9936    9.7052 N.am        1 U5P      -0.1865
      4 C4         42.3069    4.7315    9.5545 C.2         1 U5P       0.1822
      5 C5         41.8898    3.7744   10.4233 C.2         1 U5P       0.0062
      6 C6         41.1066    4.1454   11.4544 C.2         1 U5P       0.0591
      7 O2         40.8458    7.5505   10.7987 O.2         1 U5P      -0.3815
      8 O4         43.0723    4.4435    8.6420 O.2         1 U5P      -0.4124
      9 C1'        39.9038    5.8205   12.7771 C.3         1 U5P       0.2059
     10 C2'        38.4126    5.9797   12.4093 C.3         1 U5P       0.1387
     11 O2'        38.0804    7.1978   11.7482 O.3         1 U5P      -0.3836
     12 C3'        37.7141    5.8712   13.7728 C.3         1 U5P       0.1149
     13 C4'        38.6594    4.9337   14.5679 C.3         1 U5P       0.1182
     14 O3'        37.5754    7.1382   14.4151 O.3         1 U5P      -0.3864
     15 O4'        39.9019    4.8596   13.8538 O.3         1 U5P      -0.3363
     16 C5'        38.0829    3.5132   14.7936 C.3         1 U5P       0.1072
     17 O5'        37.7230    2.9189   13.5232 O.3         1 U5P      -0.2734
     18 P          36.6483    1.7947   13.5733 P.3         1 U5P       0.2008
     19 O1P        36.9958    0.7178   14.4653 O.co2       1 U5P      -0.5537
     20 O2P        36.5179    1.2374   12.2502 O.co2       1 U5P      -0.5537
     21 O3P        35.3578    2.3395   13.9254 O.co2       1 U5P      -0.5537
     22 H1         42.2170    6.6649    9.0739 H           1 U5P       0.2259
     23 H2         42.1380    2.8190   10.3034 H           1 U5P       0.0258
     24 H3         40.7995    3.4310   12.0724 H           1 U5P       0.1178
     25 H4         40.2871    6.7546   13.2035 H           1 U5P       0.0997
     26 H5         38.1044    5.1397   11.7761 H           1 U5P       0.0676
     27 H6         38.2203    7.0168   10.7951 H           1 U5P       0.2101
     28 H7         36.7144    5.4566   13.6478 H           1 U5P       0.0648
     29 H8         38.8817    5.3734   15.5478 H           1 U5P       0.0650
     30 H9         38.4870    7.4770   14.5339 H           1 U5P       0.2100
     31 H10        37.2305    3.6321   15.4647 H           1 U5P       0.0639
     32 H11        38.8307    2.8900   15.2940 H           1 U5P       0.0639
@<TRIPOS>BOND
     1     1     2  am
     2     1     6   1
     3     1     9   1
     4     2     3  am
     5     2     7   2
     6     3     4  am
     7     4     5   1
     8     4     8   2
     9     5     6   2
    10     9    10   1
    11     9    15   1
    12    10    11   1
    13    10    12   1
    14    12    13   1
    15    12    14   1
    16    13    15   1
    17    13    16   1
    18    16    17   1
    19    17    18   1
    20    18    19  ar
    21    18    20  ar
    22    18    21  ar
    23     3    22   1
    24     5    23   1
    25     6    24   1
    26     9    25   1
    27    10    26   1
    28    11    27   1
    29    12    28   1
    30    13    29   1
    31    14    30   1
    32    16    31   1
    33    16    32   1
@<TRIPOS>SUBSTRUCTURE
     1  U5P      2

