@<TRIPOS>MOLECULE
3dxg_ligand_001
    32    33
SMALL
GAST_HUCK
****
This file was generated by PARSER (from files_GN.cpp)

@<TRIPOS>ATOM
      1 N1         40.2461    3.7969   11.2570 N.am        1 U5P      -0.1592
      2 C2         41.2706    4.2991   10.5277 C.2         1 U5P       0.3328
      3 N3         41.3569    5.6100   10.3116 N.am        1 U5P      -0.1865
      4 C4         40.4742    6.4620   10.8251 C.2         1 U5P       0.1822
      5 C5         39.4533    6.0043   11.5966 C.2         1 U5P       0.0062
      6 C6         39.3483    4.6792   11.8013 C.2         1 U5P       0.0591
      7 O2         42.1625    3.6209   10.0395 O.2         1 U5P      -0.3815
      8 O4         40.6163    7.6577   10.6125 O.2         1 U5P      -0.4124
      9 C1'        40.1109    2.3680   11.5135 C.3         1 U5P       0.2059
     10 C2'        40.0231    1.4474   10.2601 C.3         1 U5P       0.1387
     11 O2'        38.7480    0.8119   10.1674 O.3         1 U5P      -0.3836
     12 C3'        41.1744    0.4385   10.4634 C.3         1 U5P       0.1149
     13 C4'        41.4191    0.5199   11.9842 C.3         1 U5P       0.1182
     14 O3'        40.9057   -0.8843    9.9935 O.3         1 U5P      -0.3864
     15 O4'        41.2495    1.9163   12.2632 O.3         1 U5P      -0.3363
     16 C5'        42.7835   -0.0042   12.5201 C.3         1 U5P       0.1072
     17 O5'        43.8357   -0.0054   11.5297 O.3         1 U5P      -0.2734
     18 P          44.5990   -1.3405   11.2932 P.3         1 U5P       0.2008
     19 O1P        45.2125   -1.8169   12.5071 O.co2       1 U5P      -0.5537
     20 O2P        45.6439   -1.0723   10.3385 O.co2       1 U5P      -0.5537
     21 O3P        43.7358   -2.3491   10.7347 O.co2       1 U5P      -0.5537
     22 H1         42.0883    5.9504    9.7761 H           1 U5P       0.2259
     23 H2         38.8102    6.6349   12.0204 H           1 U5P       0.0258
     24 H3         38.6091    4.3557   12.3816 H           1 U5P       0.1178
     25 H4         39.2338    2.1575   12.1404 H           1 U5P       0.0997
     26 H5         40.1805    2.0088    9.3363 H           1 U5P       0.0676
     27 H6         38.8148    0.2096    9.3958 H           1 U5P       0.2101
     28 H7         42.0470    0.8161    9.9159 H           1 U5P       0.0648
     29 H8         40.6185   -0.0248   12.4977 H           1 U5P       0.0650
     30 H9         40.1614   -1.2076   10.5460 H           1 U5P       0.2100
     31 H10        42.6022   -0.9740   12.9915 H           1 U5P       0.0639
     32 H11        43.1243    0.6627   13.3143 H           1 U5P       0.0639
@<TRIPOS>BOND
     1     1     2  am
     2     1     6   1
     3     1     9   1
     4     2     3  am
     5     2     7   2
     6     3     4  am
     7     4     5   1
     8     4     8   2
     9     5     6   2
    10     9    10   1
    11     9    15   1
    12    10    11   1
    13    10    12   1
    14    12    13   1
    15    12    14   1
    16    13    15   1
    17    13    16   1
    18    16    17   1
    19    17    18   1
    20    18    19  ar
    21    18    20  ar
    22    18    21  ar
    23     3    22   1
    24     5    23   1
    25     6    24   1
    26     9    25   1
    27    10    26   1
    28    11    27   1
    29    12    28   1
    30    13    29   1
    31    14    30   1
    32    16    31   1
    33    16    32   1
@<TRIPOS>SUBSTRUCTURE
     1  U5P      2

