@<TRIPOS>MOLECULE
3dxg_ligand_068
    32    33
SMALL
GAST_HUCK
****
This file was generated by PARSER (from files_GN.cpp)

@<TRIPOS>ATOM
      1 N1         35.8142    7.0523   14.4688 N.am        1 U5P      -0.1592
      2 C2         34.6568    7.5767   13.9996 C.2         1 U5P       0.3328
      3 N3         34.5068    8.8958   13.8678 N.am        1 U5P      -0.1865
      4 C4         35.4814    9.7372   14.1899 C.2         1 U5P       0.1822
      5 C5         36.6524    9.2683   14.6889 C.2         1 U5P       0.0062
      6 C6         36.8096    7.9345   14.8032 C.2         1 U5P       0.0591
      7 O2         33.6734    6.9042   13.7260 O.2         1 U5P      -0.3815
      8 O4         35.3108   10.9393   14.0517 O.2         1 U5P      -0.4124
      9 C1'        35.9824    5.6111   14.6718 C.3         1 U5P       0.2059
     10 C2'        35.8098    4.7354   13.3990 C.3         1 U5P       0.1387
     11 O2'        34.9614    3.6145   13.6747 O.3         1 U5P      -0.3836
     12 C3'        37.2473    4.2994   13.0790 C.3         1 U5P       0.1149
     13 C4'        37.8451    4.1547   14.4907 C.3         1 U5P       0.1182
     14 O3'        37.3357    3.1095   12.2952 O.3         1 U5P      -0.3864
     15 O4'        37.2633    5.2319   15.2393 O.3         1 U5P      -0.3363
     16 C5'        39.3985    4.1967   14.5086 C.3         1 U5P       0.1072
     17 O5'        39.9740    3.6223   15.7012 O.3         1 U5P      -0.2734
     18 P          40.1785    4.5342   16.9462 P.3         1 U5P       0.2008
     19 O1P        40.7779    3.7165   17.9696 O.co2       1 U5P      -0.5537
     20 O2P        38.9499    5.0564   17.4911 O.co2       1 U5P      -0.5537
     21 O3P        41.1051    5.6080   16.6797 O.co2       1 U5P      -0.5537
     22 H1         33.6585    9.2580   13.5512 H           1 U5P       0.2259
     23 H2         37.3716    9.8860   14.9886 H           1 U5P       0.0258
     24 H3         37.6631    7.6147   15.1987 H           1 U5P       0.1178
     25 H4         35.2321    5.3206   15.4113 H           1 U5P       0.0997
     26 H5         35.3840    5.2882   12.5658 H           1 U5P       0.0676
     27 H6         34.8597    3.1568   12.8152 H           1 U5P       0.2101
     28 H7         37.7612    5.1099   12.5414 H           1 U5P       0.0648
     29 H8         37.5163    3.2069   14.9315 H           1 U5P       0.0650
     30 H9         36.8949    2.4110   12.8179 H           1 U5P       0.2100
     31 H10        39.7594    5.2105   14.3001 H           1 U5P       0.0639
     32 H11        39.7602    3.5651   13.6939 H           1 U5P       0.0639
@<TRIPOS>BOND
     1     1     2  am
     2     1     6   1
     3     1     9   1
     4     2     3  am
     5     2     7   2
     6     3     4  am
     7     4     5   1
     8     4     8   2
     9     5     6   2
    10     9    10   1
    11     9    15   1
    12    10    11   1
    13    10    12   1
    14    12    13   1
    15    12    14   1
    16    13    15   1
    17    13    16   1
    18    16    17   1
    19    17    18   1
    20    18    19  ar
    21    18    20  ar
    22    18    21  ar
    23     3    22   1
    24     5    23   1
    25     6    24   1
    26     9    25   1
    27    10    26   1
    28    11    27   1
    29    12    28   1
    30    13    29   1
    31    14    30   1
    32    16    31   1
    33    16    32   1
@<TRIPOS>SUBSTRUCTURE
     1  U5P      2

