@<TRIPOS>MOLECULE
3dxg_ligand_041
    32    33
SMALL
GAST_HUCK
****
This file was generated by PARSER (from files_GN.cpp)

@<TRIPOS>ATOM
      1 N1         39.7617    3.9757   11.0019 N.am        1 U5P      -0.1592
      2 C2         40.3313    5.2000   10.9011 C.2         1 U5P       0.3328
      3 N3         41.4649    5.3622   10.2155 N.am        1 U5P      -0.1865
      4 C4         42.0776    4.3371    9.6251 C.2         1 U5P       0.1822
      5 C5         41.5387    3.0921    9.6927 C.2         1 U5P       0.0062
      6 C6         40.3918    2.9283   10.3765 C.2         1 U5P       0.0591
      7 O2         39.8765    6.2106   11.4161 O.2         1 U5P      -0.3815
      8 O4         43.1262    4.5362    9.0247 O.2         1 U5P      -0.4124
      9 C1'        38.5212    3.6992   11.7140 C.3         1 U5P       0.2059
     10 C2'        38.7461    2.8214   12.9681 C.3         1 U5P       0.1387
     11 O2'        38.5458    1.4413   12.6680 O.3         1 U5P      -0.3836
     12 C3'        37.7457    3.3668   14.0039 C.3         1 U5P       0.1149
     13 C4'        36.8875    4.3640   13.1938 C.3         1 U5P       0.1182
     14 O3'        36.9275    2.3520   14.5826 O.3         1 U5P      -0.3864
     15 O4'        37.7594    4.8393   12.1648 O.3         1 U5P      -0.3363
     16 C5'        36.3173    5.5439   14.0387 C.3         1 U5P       0.1072
     17 O5'        35.3000    6.2987   13.3411 O.3         1 U5P      -0.2734
     18 P          33.8741    5.6809   13.2037 P.3         1 U5P       0.2008
     19 O1P        33.7259    4.3261   13.6707 O.co2       1 U5P      -0.5537
     20 O2P        33.5048    5.6975   11.8129 O.co2       1 U5P      -0.5537
     21 O3P        32.9039    6.5121   13.8808 O.co2       1 U5P      -0.5537
     22 H1         41.8595    6.2470   10.1576 H           1 U5P       0.2259
     23 H2         41.9723    2.3203    9.2349 H           1 U5P       0.0258
     24 H3         40.0036    2.0114   10.4039 H           1 U5P       0.1178
     25 H4         37.8539    3.1761   11.0173 H           1 U5P       0.0997
     26 H5         39.7615    2.9425   13.3525 H           1 U5P       0.0676
     27 H6         38.6791    0.9683   13.5147 H           1 U5P       0.2101
     28 H7         38.2885    3.8923   14.7984 H           1 U5P       0.0648
     29 H8         36.0619    3.8202   12.7237 H           1 U5P       0.0650
     30 H9         36.4506    2.8013   15.3126 H           1 U5P       0.2100
     31 H10        37.1367    6.2371   14.2466 H           1 U5P       0.0639
     32 H11        35.9505    5.1889   15.0095 H           1 U5P       0.0639
@<TRIPOS>BOND
     1     1     2  am
     2     1     6   1
     3     1     9   1
     4     2     3  am
     5     2     7   2
     6     3     4  am
     7     4     5   1
     8     4     8   2
     9     5     6   2
    10     9    10   1
    11     9    15   1
    12    10    11   1
    13    10    12   1
    14    12    13   1
    15    12    14   1
    16    13    15   1
    17    13    16   1
    18    16    17   1
    19    17    18   1
    20    18    19  ar
    21    18    20  ar
    22    18    21  ar
    23     3    22   1
    24     5    23   1
    25     6    24   1
    26     9    25   1
    27    10    26   1
    28    11    27   1
    29    12    28   1
    30    13    29   1
    31    14    30   1
    32    16    31   1
    33    16    32   1
@<TRIPOS>SUBSTRUCTURE
     1  U5P      2

