@<TRIPOS>MOLECULE
3dxg_ligand_049
    32    33
SMALL
GAST_HUCK
****
This file was generated by PARSER (from files_GN.cpp)

@<TRIPOS>ATOM
      1 N1         41.3671    5.6149   10.8543 N.am        1 U5P      -0.1592
      2 C2         40.4471    6.6139   10.8583 C.2         1 U5P       0.3328
      3 N3         39.2079    6.3721   11.2786 N.am        1 U5P      -0.1865
      4 C4         38.8558    5.1785   11.7561 C.2         1 U5P       0.1822
      5 C5         39.7548    4.1570   11.7976 C.2         1 U5P       0.0062
      6 C6         40.9952    4.3831   11.3294 C.2         1 U5P       0.0591
      7 O2         40.6886    7.7617   10.4875 O.2         1 U5P      -0.3815
      8 O4         37.7148    5.0226   12.1554 O.2         1 U5P      -0.4124
      9 C1'        42.7286    5.8191   10.3788 C.3         1 U5P       0.2059
     10 C2'        42.8976    5.7430    8.8400 C.3         1 U5P       0.1387
     11 O2'        43.1267    4.3875    8.4254 O.3         1 U5P      -0.3836
     12 C3'        44.0769    6.7095    8.5471 C.3         1 U5P       0.1149
     13 C4'        44.3625    7.3867    9.9164 C.3         1 U5P       0.1182
     14 O3'        45.2252    6.0463    8.0253 O.3         1 U5P      -0.3864
     15 O4'        43.2182    7.1139   10.7400 O.3         1 U5P      -0.3363
     16 C5'        44.6252    8.9189    9.8704 C.3         1 U5P       0.1072
     17 O5'        44.3861    9.5697   11.1381 O.3         1 U5P      -0.2734
     18 P          45.4560    9.4475   12.2726 P.3         1 U5P       0.2008
     19 O1P        46.5799   10.3321   12.0786 O.co2       1 U5P      -0.5537
     20 O2P        45.8925    8.0994   12.5270 O.co2       1 U5P      -0.5537
     21 O3P        44.7885    9.8883   13.4708 O.co2       1 U5P      -0.5537
     22 H1         38.5429    7.0737   11.1955 H           1 U5P       0.2259
     23 H2         39.5028    3.2615   12.1408 H           1 U5P       0.0258
     24 H3         41.6479    3.6257   11.3420 H           1 U5P       0.1178
     25 H4         43.4243    5.0916   10.8189 H           1 U5P       0.0997
     26 H5         42.0030    6.1059    8.3161 H           1 U5P       0.0676
     27 H6         42.2843    4.1205    7.9956 H           1 U5P       0.2101
     28 H7         43.7514    7.4434    7.8052 H           1 U5P       0.0648
     29 H8         45.2205    6.8991   10.3889 H           1 U5P       0.0650
     30 H9         45.5008    5.4055    8.7180 H           1 U5P       0.2100
     31 H10        43.9106    9.3668    9.1795 H           1 U5P       0.0639
     32 H11        45.6264    9.1187    9.4756 H           1 U5P       0.0639
@<TRIPOS>BOND
     1     1     2  am
     2     1     6   1
     3     1     9   1
     4     2     3  am
     5     2     7   2
     6     3     4  am
     7     4     5   1
     8     4     8   2
     9     5     6   2
    10     9    10   1
    11     9    15   1
    12    10    11   1
    13    10    12   1
    14    12    13   1
    15    12    14   1
    16    13    15   1
    17    13    16   1
    18    16    17   1
    19    17    18   1
    20    18    19  ar
    21    18    20  ar
    22    18    21  ar
    23     3    22   1
    24     5    23   1
    25     6    24   1
    26     9    25   1
    27    10    26   1
    28    11    27   1
    29    12    28   1
    30    13    29   1
    31    14    30   1
    32    16    31   1
    33    16    32   1
@<TRIPOS>SUBSTRUCTURE
     1  U5P      2

