@<TRIPOS>MOLECULE
3dxg_ligand_044
    32    33
SMALL
GAST_HUCK
****
This file was generated by PARSER (from files_GN.cpp)

@<TRIPOS>ATOM
      1 N1         34.7301   -7.7076   11.2134 N.am        1 U5P      -0.1592
      2 C2         34.8069   -7.5313    9.8715 C.2         1 U5P       0.3328
      3 N3         34.9220   -6.3036    9.3622 N.am        1 U5P      -0.1865
      4 C4         34.9561   -5.2202   10.1381 C.2         1 U5P       0.1822
      5 C5         34.8536   -5.3579   11.4887 C.2         1 U5P       0.0062
      6 C6         34.7551   -6.5919   12.0093 C.2         1 U5P       0.0591
      7 O2         34.8000   -8.4345    9.0429 O.2         1 U5P      -0.3815
      8 O4         35.1061   -4.1267    9.6141 O.2         1 U5P      -0.4124
      9 C1'        34.6902   -9.0175   11.8578 C.3         1 U5P       0.2059
     10 C2'        33.3047   -9.3843   12.4347 C.3         1 U5P       0.1387
     11 O2'        32.9583   -8.6735   13.6299 O.3         1 U5P      -0.3836
     12 C3'        33.4438  -10.8974   12.6624 C.3         1 U5P       0.1149
     13 C4'        34.3649  -11.3302   11.4946 C.3         1 U5P       0.1182
     14 O3'        34.0292  -11.2007   13.9328 O.3         1 U5P      -0.3864
     15 O4'        35.0206  -10.1407   11.0180 O.3         1 U5P      -0.3363
     16 C5'        33.5916  -12.0247   10.3373 C.3         1 U5P       0.1072
     17 O5'        34.4457  -12.7034    9.3858 O.3         1 U5P      -0.2734
     18 P          34.8105  -11.9488    8.0647 P.3         1 U5P       0.2008
     19 O1P        33.6320  -11.5112    7.3589 O.co2       1 U5P      -0.5537
     20 O2P        35.5132  -12.8618    7.1964 O.co2       1 U5P      -0.5537
     21 O3P        35.6845  -10.8245    8.3048 O.co2       1 U5P      -0.5537
     22 H1         35.0004   -6.2049    8.3950 H           1 U5P       0.2259
     23 H2         34.8654   -4.5599   12.0742 H           1 U5P       0.0258
     24 H3         34.7135   -6.6754   12.9971 H           1 U5P       0.1178
     25 H4         35.4318   -9.0140   12.6646 H           1 U5P       0.0997
     26 H5         32.5342   -9.1945   11.6767 H           1 U5P       0.0676
     27 H6         32.4151   -9.2976   14.1590 H           1 U5P       0.2101
     28 H7         32.4570  -11.3668   12.6321 H           1 U5P       0.0648
     29 H8         35.1327  -12.0211   11.8561 H           1 U5P       0.0650
     30 H9         34.9387  -10.8319   13.9098 H           1 U5P       0.2100
     31 H10        32.8914  -11.3234    9.8726 H           1 U5P       0.0639
     32 H11        32.9831  -12.8192   10.7652 H           1 U5P       0.0639
@<TRIPOS>BOND
     1     1     2  am
     2     1     6   1
     3     1     9   1
     4     2     3  am
     5     2     7   2
     6     3     4  am
     7     4     5   1
     8     4     8   2
     9     5     6   2
    10     9    10   1
    11     9    15   1
    12    10    11   1
    13    10    12   1
    14    12    13   1
    15    12    14   1
    16    13    15   1
    17    13    16   1
    18    16    17   1
    19    17    18   1
    20    18    19  ar
    21    18    20  ar
    22    18    21  ar
    23     3    22   1
    24     5    23   1
    25     6    24   1
    26     9    25   1
    27    10    26   1
    28    11    27   1
    29    12    28   1
    30    13    29   1
    31    14    30   1
    32    16    31   1
    33    16    32   1
@<TRIPOS>SUBSTRUCTURE
     1  U5P      2

