@<TRIPOS>MOLECULE
3dxg_ligand_017
    32    33
SMALL
GAST_HUCK
****
This file was generated by PARSER (from files_GN.cpp)

@<TRIPOS>ATOM
      1 N1         38.5130    1.2826   11.7324 N.am        1 U5P      -0.1592
      2 C2         37.6984    1.8697   10.8257 C.2         1 U5P       0.3328
      3 N3         36.6265    1.2238   10.3711 N.am        1 U5P      -0.1865
      4 C4         36.3102    0.0062   10.7986 C.2         1 U5P       0.1822
      5 C5         37.0838   -0.6081   11.7375 C.2         1 U5P       0.0062
      6 C6         38.1732    0.0398   12.1934 C.2         1 U5P       0.0591
      7 O2         37.9090    2.9777   10.3556 O.2         1 U5P      -0.3815
      8 O4         35.3277   -0.5497   10.3271 O.2         1 U5P      -0.4124
      9 C1'        39.7694    1.8906   12.1422 C.3         1 U5P       0.2059
     10 C2'        40.8046    1.9290   10.9839 C.3         1 U5P       0.1387
     11 O2'        41.9579    1.1522   11.3041 O.3         1 U5P      -0.3836
     12 C3'        41.1289    3.4258   10.8402 C.3         1 U5P       0.1149
     13 C4'        40.7531    3.9905   12.2250 C.3         1 U5P       0.1182
     14 O3'        42.4842    3.6812   10.4707 O.3         1 U5P      -0.3864
     15 O4'        39.5904    3.2426   12.6034 O.3         1 U5P      -0.3363
     16 C5'        40.4593    5.5198   12.2003 C.3         1 U5P       0.1072
     17 O5'        40.1732    6.1059   13.4865 O.3         1 U5P      -0.2734
     18 P          38.7351    6.6237   13.7870 P.3         1 U5P       0.2008
     19 O1P        38.3052    6.2145   15.0969 O.co2       1 U5P      -0.5537
     20 O2P        37.7468    6.2454   12.8097 O.co2       1 U5P      -0.5537
     21 O3P        38.8012    8.0642   13.7843 O.co2       1 U5P      -0.5537
     22 H1         36.0744    1.6455    9.6921 H           1 U5P       0.2259
     23 H2         36.8588   -1.5196   12.0681 H           1 U5P       0.0258
     24 H3         38.7413   -0.4252   12.8647 H           1 U5P       0.1178
     25 H4         40.2086    1.3535   12.9913 H           1 U5P       0.0997
     26 H5         40.3933    1.5473   10.0443 H           1 U5P       0.0676
     27 H6         42.3561    0.9217   10.4384 H           1 U5P       0.2101
     28 H7         40.4804    3.8581   10.0735 H           1 U5P       0.0648
     29 H8         41.5640    3.7973   12.9358 H           1 U5P       0.0650
     30 H9         42.6571    4.6080   10.7384 H           1 U5P       0.2100
     31 H10        39.6805    5.7400   11.4650 H           1 U5P       0.0639
     32 H11        41.3554    6.0296   11.8495 H           1 U5P       0.0639
@<TRIPOS>BOND
     1     1     2  am
     2     1     6   1
     3     1     9   1
     4     2     3  am
     5     2     7   2
     6     3     4  am
     7     4     5   1
     8     4     8   2
     9     5     6   2
    10     9    10   1
    11     9    15   1
    12    10    11   1
    13    10    12   1
    14    12    13   1
    15    12    14   1
    16    13    15   1
    17    13    16   1
    18    16    17   1
    19    17    18   1
    20    18    19  ar
    21    18    20  ar
    22    18    21  ar
    23     3    22   1
    24     5    23   1
    25     6    24   1
    26     9    25   1
    27    10    26   1
    28    11    27   1
    29    12    28   1
    30    13    29   1
    31    14    30   1
    32    16    31   1
    33    16    32   1
@<TRIPOS>SUBSTRUCTURE
     1  U5P      2

