@<TRIPOS>MOLECULE
3dxg_ligand_035
    32    33
SMALL
GAST_HUCK
****
This file was generated by PARSER (from files_GN.cpp)

@<TRIPOS>ATOM
      1 N1         41.2474    4.2205   10.1974 N.am        1 U5P      -0.1592
      2 C2         42.1314    4.9805    9.5098 C.2         1 U5P       0.3328
      3 N3         42.0317    6.3099    9.5425 N.am        1 U5P      -0.1865
      4 C4         41.0862    6.9258   10.2482 C.2         1 U5P       0.1822
      5 C5         40.1928    6.1976   10.9726 C.2         1 U5P       0.0062
      6 C6         40.2924    4.8544   10.9473 C.2         1 U5P       0.0591
      7 O2         43.0541    4.5203    8.8479 O.2         1 U5P      -0.3815
      8 O4         41.0413    8.1477   10.2491 O.2         1 U5P      -0.4124
      9 C1'        41.2777    2.7655   10.1531 C.3         1 U5P       0.2059
     10 C2'        41.8372    2.1119   11.4302 C.3         1 U5P       0.1387
     11 O2'        43.2544    2.2255   11.5474 O.3         1 U5P      -0.3836
     12 C3'        41.3476    0.6634   11.2778 C.3         1 U5P       0.1149
     13 C4'        40.0053    0.8314   10.5070 C.3         1 U5P       0.1182
     14 O3'        42.2859   -0.1076   10.5232 O.3         1 U5P      -0.3864
     15 O4'        39.9706    2.1885   10.0182 O.3         1 U5P      -0.3363
     16 C5'        38.7240    0.5661   11.3584 C.3         1 U5P       0.1072
     17 O5'        38.1220   -0.7374   11.2214 O.3         1 U5P      -0.2734
     18 P          38.9311   -2.0059   11.6231 P.3         1 U5P       0.2008
     19 O1P        38.0157   -3.1159   11.5999 O.co2       1 U5P      -0.5537
     20 O2P        39.4870   -1.9360   12.9508 O.co2       1 U5P      -0.5537
     21 O3P        39.9562   -2.3097   10.6575 O.co2       1 U5P      -0.5537
     22 H1         42.6686    6.8447    9.0414 H           1 U5P       0.2259
     23 H2         39.4845    6.6436   11.5104 H           1 U5P       0.0258
     24 H3         39.6350    4.3299   11.4805 H           1 U5P       0.1178
     25 H4         41.8585    2.4111    9.2925 H           1 U5P       0.0997
     26 H5         41.3779    2.5571   12.3173 H           1 U5P       0.0676
     27 H6         43.4286    3.1855   11.6429 H           1 U5P       0.2101
     28 H7         41.2277    0.1986   12.2592 H           1 U5P       0.0648
     29 H8         39.9806    0.1752    9.6325 H           1 U5P       0.0650
     30 H9         41.9459   -1.0261   10.5411 H           1 U5P       0.2100
     31 H10        37.9488    1.2555   11.0200 H           1 U5P       0.0639
     32 H11        38.9001    0.8047   12.4112 H           1 U5P       0.0639
@<TRIPOS>BOND
     1     1     2  am
     2     1     6   1
     3     1     9   1
     4     2     3  am
     5     2     7   2
     6     3     4  am
     7     4     5   1
     8     4     8   2
     9     5     6   2
    10     9    10   1
    11     9    15   1
    12    10    11   1
    13    10    12   1
    14    12    13   1
    15    12    14   1
    16    13    15   1
    17    13    16   1
    18    16    17   1
    19    17    18   1
    20    18    19  ar
    21    18    20  ar
    22    18    21  ar
    23     3    22   1
    24     5    23   1
    25     6    24   1
    26     9    25   1
    27    10    26   1
    28    11    27   1
    29    12    28   1
    30    13    29   1
    31    14    30   1
    32    16    31   1
    33    16    32   1
@<TRIPOS>SUBSTRUCTURE
     1  U5P      2

