@<TRIPOS>MOLECULE
3dxg_ligand_016
    32    33
SMALL
GAST_HUCK
****
This file was generated by PARSER (from files_GN.cpp)

@<TRIPOS>ATOM
      1 N1         38.6671    2.3679   12.7650 N.am        1 U5P      -0.1592
      2 C2         37.8391    1.4366   13.2923 C.2         1 U5P       0.3328
      3 N3         36.6280    1.7834   13.7299 N.am        1 U5P      -0.1865
      4 C4         36.1984    3.0421   13.6538 C.2         1 U5P       0.1822
      5 C5         36.9953    4.0086   13.1239 C.2         1 U5P       0.0062
      6 C6         38.2111    3.6543   12.6676 C.2         1 U5P       0.0591
      7 O2         38.1443    0.2572   13.4115 O.2         1 U5P      -0.3815
      8 O4         35.0794    3.3163   14.0608 O.2         1 U5P      -0.4124
      9 C1'        40.0039    2.0277   12.2969 C.3         1 U5P       0.2059
     10 C2'        40.0109    1.4519   10.8670 C.3         1 U5P       0.1387
     11 O2'        39.6167    0.0800   10.8293 O.3         1 U5P      -0.3836
     12 C3'        41.4695    1.6918   10.4404 C.3         1 U5P       0.1149
     13 C4'        41.8082    3.0308   11.1461 C.3         1 U5P       0.1182
     14 O3'        42.3226    0.6493   10.9178 O.3         1 U5P      -0.3864
     15 O4'        40.9271    3.1351   12.2816 O.3         1 U5P      -0.3363
     16 C5'        41.6168    4.2726   10.2314 C.3         1 U5P       0.1072
     17 O5'        41.9367    5.4855   10.9494 O.3         1 U5P      -0.2734
     18 P          41.6705    6.8226   10.1874 P.3         1 U5P       0.2008
     19 O1P        42.8901    7.3901    9.6684 O.co2       1 U5P      -0.5537
     20 O2P        41.1039    7.7770   11.1099 O.co2       1 U5P      -0.5537
     21 O3P        40.7162    6.6914    9.1182 O.co2       1 U5P      -0.5537
     22 H1         36.0429    1.1040   14.1145 H           1 U5P       0.2259
     23 H2         36.6864    4.9502   13.0623 H           1 U5P       0.0258
     24 H3         38.7749    4.3662   12.2560 H           1 U5P       0.1178
     25 H4         40.4568    1.2995   12.9815 H           1 U5P       0.0997
     26 H5         39.3376    2.0294   10.2262 H           1 U5P       0.0676
     27 H6         39.2168   -0.0702    9.9472 H           1 U5P       0.2101
     28 H7         41.5708    1.7480    9.3525 H           1 U5P       0.0648
     29 H8         42.8414    3.0218   11.5059 H           1 U5P       0.0650
     30 H9         42.2144   -0.0851   10.2723 H           1 U5P       0.2100
     31 H10        40.5727    4.3043    9.9174 H           1 U5P       0.0639
     32 H11        42.2544    4.1598    9.3471 H           1 U5P       0.0639
@<TRIPOS>BOND
     1     1     2  am
     2     1     6   1
     3     1     9   1
     4     2     3  am
     5     2     7   2
     6     3     4  am
     7     4     5   1
     8     4     8   2
     9     5     6   2
    10     9    10   1
    11     9    15   1
    12    10    11   1
    13    10    12   1
    14    12    13   1
    15    12    14   1
    16    13    15   1
    17    13    16   1
    18    16    17   1
    19    17    18   1
    20    18    19  ar
    21    18    20  ar
    22    18    21  ar
    23     3    22   1
    24     5    23   1
    25     6    24   1
    26     9    25   1
    27    10    26   1
    28    11    27   1
    29    12    28   1
    30    13    29   1
    31    14    30   1
    32    16    31   1
    33    16    32   1
@<TRIPOS>SUBSTRUCTURE
     1  U5P      2

