@<TRIPOS>MOLECULE
3e93_ligand_071
    70    75
SMALL
GAST_HUCK
****
This file was generated by PARSER (from files_GN.cpp)

@<TRIPOS>ATOM
      1 O25        36.8067   19.8329   40.9978 O.2         1 MOL      -0.3760
      2 C22        37.1676   20.9942   41.1619 C.2         1 MOL       0.2274
      3 N24        36.8948   21.6777   42.2710 N.am        1 MOL      -0.2370
      4 C26        36.1743   21.3118   43.3804 C.ar        1 MOL       0.0536
      5 C27        35.9431   19.9835   43.8238 C.ar        1 MOL      -0.0255
      6 C29        35.0374   19.7069   44.8819 C.ar        1 MOL       0.0259
      7 C32        34.4270   20.7985   45.5423 C.ar        1 MOL      -0.0595
      8 C30        34.7605   22.1203   45.2066 C.ar        1 MOL      -0.0865
      9 C28        35.6171   22.3733   44.1257 C.ar        1 MOL      -0.0544
     10 N31        34.6910   18.4281   45.2087 N.pl3       1 MOL      -0.3075
     11 C33        33.3103   17.9913   45.0745 C.3         1 MOL       0.0499
     12 C35        33.2682   16.9332   43.9369 C.3         1 MOL       0.0673
     13 O37        34.1666   15.8450   44.2372 O.3         1 MOL      -0.3759
     14 C36        35.5445   16.2535   44.4192 C.3         1 MOL       0.0673
     15 C34        35.6675   17.3906   45.4696 C.3         1 MOL       0.0499
     16 C19        37.8273   21.6059   40.1009 C.ar        1 MOL       0.0497
     17 C23        37.3969   22.8410   39.5568 C.ar        1 MOL      -0.0479
     18 C20        38.0480   23.4127   38.4490 C.ar        1 MOL      -0.0536
     19 C18        39.1883   22.8071   37.8781 C.ar        1 MOL      -0.0326
     20 C21        39.8891   23.4569   36.7374 C.3         1 MOL      -0.0276
     21 C15        39.6464   21.5858   38.4398 C.ar        1 MOL      -0.0123
     22 C17        38.9618   20.9904   39.5207 C.ar        1 MOL      -0.0399
     23 C12        40.8237   20.9515   37.9958 C.ar        1 MOL      -0.0269
     24 C9         42.0464   21.2165   38.6627 C.ar        1 MOL      -0.0647
     25 C4         43.2415   20.6118   38.2295 C.ar        1 MOL      -0.0614
     26 C1         43.1974   19.7432   37.1207 C.ar        1 MOL       0.0282
     27 C3         41.9940   19.4693   36.4841 C.ar        1 MOL       0.1528
     28 O8         42.2396   18.6122   35.4697 O.3         1 MOL      -0.1790
     29 C7         40.7901   20.0579   36.9011 C.ar        1 MOL      -0.0179
     30 C2         44.1639   19.0052   36.4456 C.2         1 MOL       0.0534
     31 N6         43.5244   18.3580   35.4482 N.2         1 MOL      -0.1500
     32 C5         45.6263   18.9739   36.7247 C.3         1 MOL       0.0120
     33 C10        46.4373   19.8336   35.7090 C.3         1 MOL       0.0001
     34 C13        46.6279   19.1219   34.3470 C.3         1 MOL      -0.0317
     35 N16        47.2331   17.7843   34.5368 N.4         1 MOL       0.2272
     36 C14        46.4751   16.8829   35.4338 C.3         1 MOL      -0.0317
     37 C11        46.2028   17.5303   36.8187 C.3         1 MOL       0.0001
     38 H1         37.1632   22.6129   42.2439 H           1 MOL       0.2248
     39 H2         36.3697   19.2024   43.3295 H           1 MOL       0.0391
     40 H3         33.7755   20.6324   46.3139 H           1 MOL       0.0393
     41 H4         34.3363   22.9024   45.7098 H           1 MOL       0.0546
     42 H5         35.7964   23.3463   43.8579 H           1 MOL       0.0398
     43 H6         32.6175   18.8024   44.8252 H           1 MOL       0.0536
     44 H7         32.9684   17.5353   46.0087 H           1 MOL       0.0536
     45 H8         33.5369   17.3903   42.9776 H           1 MOL       0.0579
     46 H9         32.2572   16.5318   43.8460 H           1 MOL       0.0579
     47 H10        35.9735   16.5694   43.4629 H           1 MOL       0.0579
     48 H11        36.1073   15.3825   44.7703 H           1 MOL       0.0579
     49 H12        35.4563   16.9685   46.4616 H           1 MOL       0.0536
     50 H13        36.6933   17.7749   45.4906 H           1 MOL       0.0536
     51 H14        36.5597   23.2996   39.9295 H           1 MOL       0.0652
     52 H15        37.6922   24.2970   38.0772 H           1 MOL       0.0569
     53 H16        39.4148   24.3901   36.4318 H           1 MOL       0.0406
     54 H17        39.8983   22.7854   35.8782 H           1 MOL       0.0406
     55 H18        40.9172   23.6802   37.0208 H           1 MOL       0.0406
     56 H19        39.3102   20.1079   39.9103 H           1 MOL       0.0658
     57 H20        42.0710   21.8557   39.4676 H           1 MOL       0.0538
     58 H21        44.1203   20.8188   38.7099 H           1 MOL       0.0598
     59 H22        39.9157   19.8383   36.4177 H           1 MOL       0.0568
     60 H23        45.7787   19.4338   37.7062 H           1 MOL       0.0460
     61 H24        47.4306   20.0251   36.1289 H           1 MOL       0.0340
     62 H25        45.9562   20.8061   35.5545 H           1 MOL       0.0340
     63 H26        47.2956   19.7175   33.7231 H           1 MOL       0.0815
     64 H27        45.6728   19.0318   33.8236 H           1 MOL       0.0815
     65 H28        48.1682   17.9105   34.9293 H           1 MOL       0.2013
     66 H29        47.3245   17.3356   33.6235 H           1 MOL       0.2013
     67 H30        47.0622   15.9738   35.5833 H           1 MOL       0.0815
     68 H31        45.5347   16.5932   34.9588 H           1 MOL       0.0815
     69 H32        45.5301   16.8955   37.4013 H           1 MOL       0.0340
     70 H33        47.1509   17.5811   37.3592 H           1 MOL       0.0340
@<TRIPOS>BOND
     1     1     2   2
     2     2     3  am
     3     2    16   1
     4     3     4   1
     5     4     5  ar
     6     4     9  ar
     7     5     6  ar
     8     6     7  ar
     9     6    10   1
    10     7     8  ar
    11     8     9  ar
    12    10    11   1
    13    10    15   1
    14    11    12   1
    15    12    13   1
    16    13    14   1
    17    14    15   1
    18    16    17  ar
    19    16    22  ar
    20    17    18  ar
    21    18    19  ar
    22    19    20   1
    23    19    21  ar
    24    21    22  ar
    25    21    23   1
    26    23    24  ar
    27    23    29  ar
    28    24    25  ar
    29    25    26  ar
    30    26    27  ar
    31    26    30   1
    32    27    28   1
    33    27    29  ar
    34    28    31   1
    35    30    31   2
    36    30    32   1
    37    32    33   1
    38    32    37   1
    39    33    34   1
    40    34    35   1
    41    35    36   1
    42    36    37   1
    43     3    38   1
    44     5    39   1
    45     7    40   1
    46     8    41   1
    47     9    42   1
    48    11    43   1
    49    11    44   1
    50    12    45   1
    51    12    46   1
    52    14    47   1
    53    14    48   1
    54    15    49   1
    55    15    50   1
    56    17    51   1
    57    18    52   1
    58    20    53   1
    59    20    54   1
    60    20    55   1
    61    22    56   1
    62    24    57   1
    63    25    58   1
    64    29    59   1
    65    32    60   1
    66    33    61   1
    67    33    62   1
    68    34    63   1
    69    34    64   1
    70    35    65   1
    71    35    66   1
    72    36    67   1
    73    36    68   1
    74    37    69   1
    75    37    70   1
@<TRIPOS>SUBSTRUCTURE
     1  MOL      2

