@<TRIPOS>MOLECULE
3e93_ligand_035
    70    75
SMALL
GAST_HUCK
****
This file was generated by PARSER (from files_GN.cpp)

@<TRIPOS>ATOM
      1 O25        36.1743   20.2895   36.6180 O.2         1 MOL      -0.3760
      2 C22        37.0542   20.9061   37.2137 C.2         1 MOL       0.2274
      3 N24        37.5939   20.4316   38.3413 N.am        1 MOL      -0.2370
      4 C26        37.3708   19.2622   39.0156 C.ar        1 MOL       0.0536
      5 C27        37.7731   19.2178   40.3791 C.ar        1 MOL      -0.0255
      6 C29        37.5636   18.0891   41.2361 C.ar        1 MOL       0.0259
      7 C32        36.9376   16.9688   40.6134 C.ar        1 MOL      -0.0595
      8 C30        36.5786   16.9607   39.2561 C.ar        1 MOL      -0.0865
      9 C28        36.8111   18.0882   38.4625 C.ar        1 MOL      -0.0544
     10 N31        37.9404   18.0792   42.5687 N.pl3       1 MOL      -0.3075
     11 C33        38.9174   19.0469   43.0785 C.3         1 MOL       0.0499
     12 C35        39.3653   18.9312   44.5670 C.3         1 MOL       0.0673
     13 O37        39.1497   17.6150   45.0934 O.3         1 MOL      -0.3759
     14 C36        37.7738   17.2318   44.9774 C.3         1 MOL       0.0673
     15 C34        37.4447   17.0468   43.4769 C.3         1 MOL       0.0499
     16 C19        37.5152   22.0926   36.6450 C.ar        1 MOL       0.0497
     17 C23        37.6535   22.2026   35.2535 C.ar        1 MOL      -0.0479
     18 C20        38.2351   23.3352   34.6526 C.ar        1 MOL      -0.0536
     19 C18        38.6408   24.4420   35.4356 C.ar        1 MOL      -0.0326
     20 C21        39.4210   25.5287   34.7730 C.3         1 MOL      -0.0276
     21 C15        38.3648   24.4161   36.8367 C.ar        1 MOL      -0.0123
     22 C17        37.8617   23.2332   37.4304 C.ar        1 MOL      -0.0399
     23 C12        38.5635   25.5457   37.6653 C.ar        1 MOL      -0.0269
     24 C9         39.3747   25.4768   38.8460 C.ar        1 MOL      -0.0647
     25 C4         39.5240   26.5783   39.6933 C.ar        1 MOL      -0.0614
     26 C1         38.9324   27.8119   39.3757 C.ar        1 MOL       0.0282
     27 C3         38.1480   27.8804   38.2303 C.ar        1 MOL       0.1528
     28 O8         37.6656   29.1296   38.0860 O.3         1 MOL      -0.1790
     29 C7         37.9211   26.7801   37.3882 C.ar        1 MOL      -0.0179
     30 C2         38.8707   29.1114   39.9300 C.2         1 MOL       0.0534
     31 N6         38.1020   29.8359   39.0915 N.2         1 MOL      -0.1500
     32 C5         39.4338   29.7605   41.1542 C.3         1 MOL       0.0120
     33 C10        40.9850   29.9189   41.1354 C.3         1 MOL       0.0001
     34 C13        41.7687   28.7384   41.7574 C.3         1 MOL      -0.0317
     35 N16        41.2117   28.3804   43.0876 N.4         1 MOL       0.2272
     36 C14        39.7531   28.0749   43.1222 C.3         1 MOL      -0.0317
     37 C11        38.9008   29.2199   42.5155 C.3         1 MOL       0.0001
     38 H1         38.2367   21.0269   38.7599 H           1 MOL       0.2248
     39 H2         38.2105   20.0551   40.7516 H           1 MOL       0.0391
     40 H3         36.7555   16.1105   41.1342 H           1 MOL       0.0393
     41 H4         36.1646   16.1208   38.8429 H           1 MOL       0.0546
     42 H5         36.5959   18.0306   37.4672 H           1 MOL       0.0398
     43 H6         38.5250   20.0602   42.9551 H           1 MOL       0.0536
     44 H7         39.8197   18.9540   42.4623 H           1 MOL       0.0536
     45 H8         38.8305   19.6640   45.1781 H           1 MOL       0.0579
     46 H9         40.4292   19.1580   44.6510 H           1 MOL       0.0579
     47 H10        37.1054   17.9719   45.4342 H           1 MOL       0.0579
     48 H11        37.6315   16.2853   45.5037 H           1 MOL       0.0579
     49 H12        37.8709   16.0877   43.1776 H           1 MOL       0.0536
     50 H13        36.3573   16.9844   43.3999 H           1 MOL       0.0536
     51 H14        37.3833   21.4198   34.6368 H           1 MOL       0.0652
     52 H15        38.3842   23.3288   33.6410 H           1 MOL       0.0569
     53 H16        39.6572   25.2999   33.7253 H           1 MOL       0.0406
     54 H17        40.3653   25.6749   35.3137 H           1 MOL       0.0406
     55 H18        38.8582   26.4598   34.7822 H           1 MOL       0.0406
     56 H19        37.7095   23.1986   38.4391 H           1 MOL       0.0658
     57 H20        39.8220   24.5829   39.0891 H           1 MOL       0.0538
     58 H21        40.0679   26.4679   40.5645 H           1 MOL       0.0598
     59 H22        37.2878   26.8818   36.5979 H           1 MOL       0.0568
     60 H23        39.0445   30.7872   41.1088 H           1 MOL       0.0460
     61 H24        41.2292   30.8199   41.7179 H           1 MOL       0.0340
     62 H25        41.3300   30.0880   40.1128 H           1 MOL       0.0340
     63 H26        42.8059   29.0449   41.9055 H           1 MOL       0.0815
     64 H27        41.7790   27.8768   41.0838 H           1 MOL       0.0815
     65 H28        41.3711   29.1634   43.7336 H           1 MOL       0.2013
     66 H29        41.7069   27.5617   43.4554 H           1 MOL       0.2013
     67 H30        39.4561   27.9324   44.1770 H           1 MOL       0.0815
     68 H31        39.5532   27.1320   42.6157 H           1 MOL       0.0815
     69 H32        37.8596   28.8868   42.4174 H           1 MOL       0.0340
     70 H33        38.8953   30.0402   43.2402 H           1 MOL       0.0340
@<TRIPOS>BOND
     1     1     2   2
     2     2     3  am
     3     2    16   1
     4     3     4   1
     5     4     5  ar
     6     4     9  ar
     7     5     6  ar
     8     6     7  ar
     9     6    10   1
    10     7     8  ar
    11     8     9  ar
    12    10    11   1
    13    10    15   1
    14    11    12   1
    15    12    13   1
    16    13    14   1
    17    14    15   1
    18    16    17  ar
    19    16    22  ar
    20    17    18  ar
    21    18    19  ar
    22    19    20   1
    23    19    21  ar
    24    21    22  ar
    25    21    23   1
    26    23    24  ar
    27    23    29  ar
    28    24    25  ar
    29    25    26  ar
    30    26    27  ar
    31    26    30   1
    32    27    28   1
    33    27    29  ar
    34    28    31   1
    35    30    31   2
    36    30    32   1
    37    32    33   1
    38    32    37   1
    39    33    34   1
    40    34    35   1
    41    35    36   1
    42    36    37   1
    43     3    38   1
    44     5    39   1
    45     7    40   1
    46     8    41   1
    47     9    42   1
    48    11    43   1
    49    11    44   1
    50    12    45   1
    51    12    46   1
    52    14    47   1
    53    14    48   1
    54    15    49   1
    55    15    50   1
    56    17    51   1
    57    18    52   1
    58    20    53   1
    59    20    54   1
    60    20    55   1
    61    22    56   1
    62    24    57   1
    63    25    58   1
    64    29    59   1
    65    32    60   1
    66    33    61   1
    67    33    62   1
    68    34    63   1
    69    34    64   1
    70    35    65   1
    71    35    66   1
    72    36    67   1
    73    36    68   1
    74    37    69   1
    75    37    70   1
@<TRIPOS>SUBSTRUCTURE
     1  MOL      2

