@<TRIPOS>MOLECULE
3e93_ligand_029
    70    75
SMALL
GAST_HUCK
****
This file was generated by PARSER (from files_GN.cpp)

@<TRIPOS>ATOM
      1 O25        40.7516   19.1420   38.6228 O.2         1 MOL      -0.3760
      2 C22        39.8251   18.8975   37.8580 C.2         1 MOL       0.2274
      3 N24        39.7312   17.6683   37.3469 N.am        1 MOL      -0.2370
      4 C26        40.6546   16.6497   37.3268 C.ar        1 MOL       0.0536
      5 C27        42.0544   16.8445   37.4198 C.ar        1 MOL      -0.0255
      6 C29        42.9870   15.7861   37.2795 C.ar        1 MOL       0.0259
      7 C32        42.4661   14.4986   37.0003 C.ar        1 MOL      -0.0595
      8 C30        41.0815   14.2754   36.9112 C.ar        1 MOL      -0.0865
      9 C28        40.1834   15.3452   37.0676 C.ar        1 MOL      -0.0544
     10 N31        44.3382   16.0154   37.3805 N.pl3       1 MOL      -0.3075
     11 C33        45.3015   15.3742   36.5050 C.3         1 MOL       0.0499
     12 C35        46.0881   16.4773   35.7475 C.3         1 MOL       0.0673
     13 O37        46.6682   17.4277   36.6670 O.3         1 MOL      -0.3759
     14 C36        45.7048   18.0474   37.5455 C.3         1 MOL       0.0673
     15 C34        44.9054   16.9699   38.3176 C.3         1 MOL       0.0499
     16 C19        38.8723   19.9040   37.6076 C.ar        1 MOL       0.0497
     17 C23        37.7445   19.6966   36.7750 C.ar        1 MOL      -0.0479
     18 C20        36.7944   20.7097   36.5604 C.ar        1 MOL      -0.0536
     19 C18        36.9257   21.9786   37.1664 C.ar        1 MOL      -0.0326
     20 C21        35.8324   22.9743   36.9981 C.3         1 MOL      -0.0276
     21 C15        38.0772   22.2372   37.9613 C.ar        1 MOL      -0.0123
     22 C17        39.0213   21.2017   38.1637 C.ar        1 MOL      -0.0399
     23 C12        38.3131   23.4847   38.6065 C.ar        1 MOL      -0.0269
     24 C9         38.5234   24.6739   37.8584 C.ar        1 MOL      -0.0647
     25 C4         38.7749   25.9037   38.5040 C.ar        1 MOL      -0.0614
     26 C1         38.8264   25.9334   39.9109 C.ar        1 MOL       0.0282
     27 C3         38.6524   24.7669   40.6448 C.ar        1 MOL       0.1528
     28 O8         38.7600   25.0665   41.9562 O.3         1 MOL      -0.1790
     29 C7         38.3944   23.5387   40.0213 C.ar        1 MOL      -0.0179
     30 C2         39.0205   26.9415   40.8513 C.2         1 MOL       0.0534
     31 N6         38.9748   26.3517   42.0649 N.2         1 MOL      -0.1500
     32 C5         39.1984   28.3967   40.5909 C.3         1 MOL       0.0120
     33 C10        40.6816   28.7544   40.2698 C.3         1 MOL       0.0001
     34 C13        41.5542   28.8118   41.5486 C.3         1 MOL      -0.0317
     35 N16        40.9752   29.7518   42.5341 N.4         1 MOL       0.2272
     36 C14        39.5959   29.4171   42.9518 C.3         1 MOL      -0.0317
     37 C11        38.6430   29.3120   41.7305 C.3         1 MOL       0.0001
     38 H1         38.8933   17.4567   36.9124 H           1 MOL       0.2248
     39 H2         42.4137   17.7947   37.4952 H           1 MOL       0.0391
     40 H3         43.0904   13.6945   36.9120 H           1 MOL       0.0393
     41 H4         40.7263   13.3338   36.7280 H           1 MOL       0.0546
     42 H5         39.1782   15.1656   36.9843 H           1 MOL       0.0398
     43 H6         44.8488   14.7213   35.7552 H           1 MOL       0.0536
     44 H7         45.9943   14.7741   37.1001 H           1 MOL       0.0536
     45 H8         45.4249   16.9970   35.0482 H           1 MOL       0.0579
     46 H9         46.8935   16.0201   35.1690 H           1 MOL       0.0579
     47 H10        45.0245   18.6837   36.9715 H           1 MOL       0.0579
     48 H11        46.2423   18.6804   38.2556 H           1 MOL       0.0579
     49 H12        45.5912   16.4364   38.9817 H           1 MOL       0.0536
     50 H13        44.1682   17.4520   38.9637 H           1 MOL       0.0536
     51 H14        37.5854   18.7988   36.3137 H           1 MOL       0.0652
     52 H15        35.9919   20.5042   35.9594 H           1 MOL       0.0569
     53 H16        34.9761   22.5632   36.4602 H           1 MOL       0.0406
     54 H17        36.1932   23.8380   36.4404 H           1 MOL       0.0406
     55 H18        35.4808   23.3026   37.9779 H           1 MOL       0.0406
     56 H19        39.8436   21.4084   38.7394 H           1 MOL       0.0658
     57 H20        38.5067   24.6502   36.8347 H           1 MOL       0.0538
     58 H21        38.9250   26.7537   37.9576 H           1 MOL       0.0598
     59 H22        38.2609   22.7022   40.5950 H           1 MOL       0.0568
     60 H23        38.6084   28.6247   39.6975 H           1 MOL       0.0460
     61 H24        40.7125   29.7378   39.7909 H           1 MOL       0.0340
     62 H25        41.1103   28.0362   39.5646 H           1 MOL       0.0340
     63 H26        42.5585   29.1513   41.2873 H           1 MOL       0.0815
     64 H27        41.6373   27.8174   41.9922 H           1 MOL       0.0815
     65 H28        40.9706   30.6864   42.1219 H           1 MOL       0.2013
     66 H29        41.5712   29.7675   43.3632 H           1 MOL       0.2013
     67 H30        39.2370   30.2003   43.6214 H           1 MOL       0.0815
     68 H31        39.6041   28.4834   43.5173 H           1 MOL       0.0815
     69 H32        37.6653   28.9530   42.0643 H           1 MOL       0.0340
     70 H33        38.4972   30.3187   41.3281 H           1 MOL       0.0340
@<TRIPOS>BOND
     1     1     2   2
     2     2     3  am
     3     2    16   1
     4     3     4   1
     5     4     5  ar
     6     4     9  ar
     7     5     6  ar
     8     6     7  ar
     9     6    10   1
    10     7     8  ar
    11     8     9  ar
    12    10    11   1
    13    10    15   1
    14    11    12   1
    15    12    13   1
    16    13    14   1
    17    14    15   1
    18    16    17  ar
    19    16    22  ar
    20    17    18  ar
    21    18    19  ar
    22    19    20   1
    23    19    21  ar
    24    21    22  ar
    25    21    23   1
    26    23    24  ar
    27    23    29  ar
    28    24    25  ar
    29    25    26  ar
    30    26    27  ar
    31    26    30   1
    32    27    28   1
    33    27    29  ar
    34    28    31   1
    35    30    31   2
    36    30    32   1
    37    32    33   1
    38    32    37   1
    39    33    34   1
    40    34    35   1
    41    35    36   1
    42    36    37   1
    43     3    38   1
    44     5    39   1
    45     7    40   1
    46     8    41   1
    47     9    42   1
    48    11    43   1
    49    11    44   1
    50    12    45   1
    51    12    46   1
    52    14    47   1
    53    14    48   1
    54    15    49   1
    55    15    50   1
    56    17    51   1
    57    18    52   1
    58    20    53   1
    59    20    54   1
    60    20    55   1
    61    22    56   1
    62    24    57   1
    63    25    58   1
    64    29    59   1
    65    32    60   1
    66    33    61   1
    67    33    62   1
    68    34    63   1
    69    34    64   1
    70    35    65   1
    71    35    66   1
    72    36    67   1
    73    36    68   1
    74    37    69   1
    75    37    70   1
@<TRIPOS>SUBSTRUCTURE
     1  MOL      2

