@<TRIPOS>MOLECULE
3e93_ligand_053
    70    75
SMALL
GAST_HUCK
****
This file was generated by PARSER (from files_GN.cpp)

@<TRIPOS>ATOM
      1 O25        36.6405   22.7621   40.5521 O.2         1 MOL      -0.3760
      2 C22        37.5493   23.0031   39.7784 C.2         1 MOL       0.2274
      3 N24        37.9791   22.1406   38.8651 N.am        1 MOL      -0.2370
      4 C26        37.6024   20.8360   38.6719 C.ar        1 MOL       0.0536
      5 C27        37.1699   19.9760   39.7080 C.ar        1 MOL      -0.0255
      6 C29        36.8666   18.6019   39.4923 C.ar        1 MOL       0.0259
      7 C32        36.9884   18.1216   38.1642 C.ar        1 MOL      -0.0595
      8 C30        37.4281   18.9544   37.1219 C.ar        1 MOL      -0.0865
      9 C28        37.7612   20.2938   37.3777 C.ar        1 MOL      -0.0544
     10 N31        36.5187   17.7818   40.5391 N.pl3       1 MOL      -0.3075
     11 C33        35.6763   18.2258   41.6367 C.3         1 MOL       0.0499
     12 C35        34.5053   17.2235   41.8218 C.3         1 MOL       0.0673
     13 O37        34.9840   15.8683   41.9442 O.3         1 MOL      -0.3759
     14 C36        35.8080   15.4482   40.8358 C.3         1 MOL       0.0673
     15 C34        37.0015   16.4167   40.6536 C.3         1 MOL       0.0499
     16 C19        38.2417   24.1857   39.9357 C.ar        1 MOL       0.0497
     17 C23        38.9376   24.4189   41.1362 C.ar        1 MOL      -0.0479
     18 C20        39.7575   25.5485   41.2681 C.ar        1 MOL      -0.0536
     19 C18        39.8971   26.4862   40.2170 C.ar        1 MOL      -0.0326
     20 C21        40.8541   27.6083   40.4311 C.3         1 MOL      -0.0276
     21 C15        39.1729   26.2896   38.9989 C.ar        1 MOL      -0.0123
     22 C17        38.3523   25.1297   38.8889 C.ar        1 MOL      -0.0399
     23 C12        39.2952   27.1534   37.8504 C.ar        1 MOL      -0.0269
     24 C9         39.5818   26.6164   36.5637 C.ar        1 MOL      -0.0647
     25 C4         39.7593   27.4461   35.4393 C.ar        1 MOL      -0.0614
     26 C1         39.6791   28.8442   35.5828 C.ar        1 MOL       0.0282
     27 C3         39.3675   29.3719   36.8321 C.ar        1 MOL       0.1528
     28 O8         39.3248   30.7138   36.7340 O.3         1 MOL      -0.1790
     29 C7         39.1491   28.5607   37.9589 C.ar        1 MOL      -0.0179
     30 C2         39.8340   29.9522   34.7365 C.2         1 MOL       0.0534
     31 N6         39.5970   31.0400   35.5035 N.2         1 MOL      -0.1500
     32 C5         40.1363   30.0246   33.2696 C.3         1 MOL       0.0120
     33 C10        41.4009   29.2289   32.8213 C.3         1 MOL       0.0001
     34 C13        42.7075   29.9078   33.2876 C.3         1 MOL      -0.0317
     35 N16        42.7917   31.2955   32.7811 N.4         1 MOL       0.2272
     36 C14        41.6290   32.1509   33.1217 C.3         1 MOL      -0.0317
     37 C11        40.2856   31.4839   32.7166 C.3         1 MOL       0.0001
     38 H1         38.6600   22.4685   38.2582 H           1 MOL       0.2248
     39 H2         37.1748   20.3284   40.6700 H           1 MOL       0.0391
     40 H3         36.7208   17.1667   37.9350 H           1 MOL       0.0393
     41 H4         37.5107   18.5841   36.1695 H           1 MOL       0.0546
     42 H5         38.1122   20.8778   36.6100 H           1 MOL       0.0398
     43 H6         35.2345   19.2122   41.4685 H           1 MOL       0.0536
     44 H7         36.2642   18.2675   42.5564 H           1 MOL       0.0536
     45 H8         33.8237   17.2960   40.9714 H           1 MOL       0.0579
     46 H9         33.9447   17.4751   42.7241 H           1 MOL       0.0579
     47 H10        35.2145   15.4042   39.9159 H           1 MOL       0.0579
     48 H11        36.1815   14.4430   41.0470 H           1 MOL       0.0579
     49 H12        37.6335   16.3509   41.5424 H           1 MOL       0.0536
     50 H13        37.6126   16.0856   39.8127 H           1 MOL       0.0536
     51 H14        38.8993   23.7444   41.9011 H           1 MOL       0.0652
     52 H15        40.2808   25.6577   42.1409 H           1 MOL       0.0569
     53 H16        41.5216   27.4331   41.2706 H           1 MOL       0.0406
     54 H17        40.3021   28.5237   40.6414 H           1 MOL       0.0406
     55 H18        41.4728   27.7517   39.5496 H           1 MOL       0.0406
     56 H19        37.8226   24.9646   38.0213 H           1 MOL       0.0658
     57 H20        39.6749   25.6053   36.4404 H           1 MOL       0.0538
     58 H21        39.9560   27.0214   34.5320 H           1 MOL       0.0598
     59 H22        38.8846   29.0028   38.8402 H           1 MOL       0.0568
     60 H23        39.2708   29.5819   32.7672 H           1 MOL       0.0460
     61 H24        41.4086   29.1561   31.7404 H           1 MOL       0.0340
     62 H25        41.3804   28.2084   33.2014 H           1 MOL       0.0340
     63 H26        43.5618   29.3451   32.9029 H           1 MOL       0.0815
     64 H27        42.7705   29.9071   34.3795 H           1 MOL       0.0815
     65 H28        42.8814   31.2622   31.7600 H           1 MOL       0.2013
     66 H29        43.6405   31.7325   33.1579 H           1 MOL       0.2013
     67 H30        41.7415   33.0999   32.5954 H           1 MOL       0.0815
     68 H31        41.6459   32.3598   34.1928 H           1 MOL       0.0815
     69 H32        39.4547   32.1155   33.0473 H           1 MOL       0.0340
     70 H33        40.2405   31.4588   31.6196 H           1 MOL       0.0340
@<TRIPOS>BOND
     1     1     2   2
     2     2     3  am
     3     2    16   1
     4     3     4   1
     5     4     5  ar
     6     4     9  ar
     7     5     6  ar
     8     6     7  ar
     9     6    10   1
    10     7     8  ar
    11     8     9  ar
    12    10    11   1
    13    10    15   1
    14    11    12   1
    15    12    13   1
    16    13    14   1
    17    14    15   1
    18    16    17  ar
    19    16    22  ar
    20    17    18  ar
    21    18    19  ar
    22    19    20   1
    23    19    21  ar
    24    21    22  ar
    25    21    23   1
    26    23    24  ar
    27    23    29  ar
    28    24    25  ar
    29    25    26  ar
    30    26    27  ar
    31    26    30   1
    32    27    28   1
    33    27    29  ar
    34    28    31   1
    35    30    31   2
    36    30    32   1
    37    32    33   1
    38    32    37   1
    39    33    34   1
    40    34    35   1
    41    35    36   1
    42    36    37   1
    43     3    38   1
    44     5    39   1
    45     7    40   1
    46     8    41   1
    47     9    42   1
    48    11    43   1
    49    11    44   1
    50    12    45   1
    51    12    46   1
    52    14    47   1
    53    14    48   1
    54    15    49   1
    55    15    50   1
    56    17    51   1
    57    18    52   1
    58    20    53   1
    59    20    54   1
    60    20    55   1
    61    22    56   1
    62    24    57   1
    63    25    58   1
    64    29    59   1
    65    32    60   1
    66    33    61   1
    67    33    62   1
    68    34    63   1
    69    34    64   1
    70    35    65   1
    71    35    66   1
    72    36    67   1
    73    36    68   1
    74    37    69   1
    75    37    70   1
@<TRIPOS>SUBSTRUCTURE
     1  MOL      2

