@<TRIPOS>MOLECULE
3e93_ligand_044
    70    75
SMALL
GAST_HUCK
****
This file was generated by PARSER (from files_GN.cpp)

@<TRIPOS>ATOM
      1 O25        34.2400   16.6876   41.5336 O.2         1 MOL      -0.3760
      2 C22        34.7591   17.0304   42.5903 C.2         1 MOL       0.2274
      3 N24        34.1382   16.7921   43.7439 N.am        1 MOL      -0.2370
      4 C26        32.9863   16.0795   43.9432 C.ar        1 MOL       0.0536
      5 C27        32.0302   16.5661   44.8634 C.ar        1 MOL      -0.0255
      6 C29        30.8136   15.8778   45.1639 C.ar        1 MOL       0.0259
      7 C32        30.6470   14.6270   44.4966 C.ar        1 MOL      -0.0595
      8 C30        31.5901   14.1186   43.5885 C.ar        1 MOL      -0.0865
      9 C28        32.7540   14.8438   43.3076 C.ar        1 MOL      -0.0544
     10 N31        29.8470   16.3970   46.0239 N.pl3       1 MOL      -0.3075
     11 C33        28.6551   15.6231   46.3549 C.3         1 MOL       0.0499
     12 C35        27.7173   16.2035   47.4397 C.3         1 MOL       0.0673
     13 O37        27.5708   17.6174   47.2598 O.3         1 MOL      -0.3759
     14 C36        28.8197   18.2933   47.4584 C.3         1 MOL       0.0673
     15 C34        29.9357   17.7740   46.5069 C.3         1 MOL       0.0499
     16 C19        35.9718   17.7241   42.5461 C.ar        1 MOL       0.0497
     17 C23        36.9469   17.5667   43.5589 C.ar        1 MOL      -0.0479
     18 C20        38.1917   18.2155   43.4730 C.ar        1 MOL      -0.0536
     19 C18        38.5007   19.0669   42.3873 C.ar        1 MOL      -0.0326
     20 C21        39.8149   19.7648   42.3623 C.3         1 MOL      -0.0276
     21 C15        37.5230   19.2515   41.3689 C.ar        1 MOL      -0.0123
     22 C17        36.2825   18.5770   41.4595 C.ar        1 MOL      -0.0399
     23 C12        37.7181   20.1261   40.2693 C.ar        1 MOL      -0.0269
     24 C9         38.5697   19.7641   39.1942 C.ar        1 MOL      -0.0647
     25 C4         38.7500   20.6308   38.0958 C.ar        1 MOL      -0.0614
     26 C1         38.0795   21.8685   38.0903 C.ar        1 MOL       0.0282
     27 C3         37.2206   22.2114   39.1268 C.ar        1 MOL       0.1528
     28 O8         36.6950   23.4252   38.8594 O.3         1 MOL      -0.1790
     29 C7         37.0205   21.3581   40.2230 C.ar        1 MOL      -0.0179
     30 C2         38.0563   22.9481   37.2113 C.2         1 MOL       0.0534
     31 N6         37.1947   23.8511   37.7266 N.2         1 MOL      -0.1500
     32 C5         38.8440   23.0980   35.9600 C.3         1 MOL       0.0120
     33 C10        40.3639   23.2695   36.2720 C.3         1 MOL       0.0001
     34 C13        41.1855   23.4386   34.9695 C.3         1 MOL      -0.0317
     35 N16        40.6607   24.5577   34.1578 N.4         1 MOL       0.2272
     36 C14        39.2337   24.4125   33.7920 C.3         1 MOL      -0.0317
     37 C11        38.3490   24.2717   35.0568 C.3         1 MOL       0.0001
     38 H1         34.5035   17.2279   44.5281 H           1 MOL       0.2248
     39 H2         32.2334   17.4665   45.2975 H           1 MOL       0.0391
     40 H3         29.8126   14.0576   44.6393 H           1 MOL       0.0393
     41 H4         31.4285   13.2191   43.1314 H           1 MOL       0.0546
     42 H5         33.4404   14.4561   42.6558 H           1 MOL       0.0398
     43 H6         28.9473   14.6314   46.7105 H           1 MOL       0.0536
     44 H7         28.0658   15.5036   45.4413 H           1 MOL       0.0536
     45 H8         28.1048   15.9730   48.4382 H           1 MOL       0.0579
     46 H9         26.7301   15.7421   47.3579 H           1 MOL       0.0579
     47 H10        29.1304   18.1859   48.5036 H           1 MOL       0.0579
     48 H11        28.6518   19.3589   47.2845 H           1 MOL       0.0579
     49 H12        29.9446   18.4305   45.6315 H           1 MOL       0.0536
     50 H13        30.8775   17.9084   47.0432 H           1 MOL       0.0536
     51 H14        36.7752   16.9529   44.3594 H           1 MOL       0.0652
     52 H15        38.8749   18.0582   44.2182 H           1 MOL       0.0569
     53 H16        40.4059   19.5748   43.2606 H           1 MOL       0.0406
     54 H17        39.6587   20.8426   42.2901 H           1 MOL       0.0406
     55 H18        40.3969   19.4305   41.5021 H           1 MOL       0.0406
     56 H19        35.5829   18.7264   40.7246 H           1 MOL       0.0658
     57 H20        39.0577   18.8640   39.2011 H           1 MOL       0.0538
     58 H21        39.3529   20.3593   37.3168 H           1 MOL       0.0598
     59 H22        36.3855   21.6402   40.9733 H           1 MOL       0.0568
     60 H23        38.7101   22.1731   35.3898 H           1 MOL       0.0460
     61 H24        40.7465   22.4002   36.8118 H           1 MOL       0.0340
     62 H25        40.5162   24.1507   36.9032 H           1 MOL       0.0340
     63 H26        41.1555   22.5146   34.3851 H           1 MOL       0.0815
     64 H27        42.2282   23.6470   35.2141 H           1 MOL       0.0815
     65 H28        41.2174   24.6202   33.3049 H           1 MOL       0.2013
     66 H29        40.7792   25.4260   34.6857 H           1 MOL       0.2013
     67 H30        39.1047   23.5400   33.1456 H           1 MOL       0.0815
     68 H31        38.9284   25.2950   33.2305 H           1 MOL       0.0815
     69 H32        38.3828   25.2137   35.6126 H           1 MOL       0.0340
     70 H33        37.3136   24.0970   34.7504 H           1 MOL       0.0340
@<TRIPOS>BOND
     1     1     2   2
     2     2     3  am
     3     2    16   1
     4     3     4   1
     5     4     5  ar
     6     4     9  ar
     7     5     6  ar
     8     6     7  ar
     9     6    10   1
    10     7     8  ar
    11     8     9  ar
    12    10    11   1
    13    10    15   1
    14    11    12   1
    15    12    13   1
    16    13    14   1
    17    14    15   1
    18    16    17  ar
    19    16    22  ar
    20    17    18  ar
    21    18    19  ar
    22    19    20   1
    23    19    21  ar
    24    21    22  ar
    25    21    23   1
    26    23    24  ar
    27    23    29  ar
    28    24    25  ar
    29    25    26  ar
    30    26    27  ar
    31    26    30   1
    32    27    28   1
    33    27    29  ar
    34    28    31   1
    35    30    31   2
    36    30    32   1
    37    32    33   1
    38    32    37   1
    39    33    34   1
    40    34    35   1
    41    35    36   1
    42    36    37   1
    43     3    38   1
    44     5    39   1
    45     7    40   1
    46     8    41   1
    47     9    42   1
    48    11    43   1
    49    11    44   1
    50    12    45   1
    51    12    46   1
    52    14    47   1
    53    14    48   1
    54    15    49   1
    55    15    50   1
    56    17    51   1
    57    18    52   1
    58    20    53   1
    59    20    54   1
    60    20    55   1
    61    22    56   1
    62    24    57   1
    63    25    58   1
    64    29    59   1
    65    32    60   1
    66    33    61   1
    67    33    62   1
    68    34    63   1
    69    34    64   1
    70    35    65   1
    71    35    66   1
    72    36    67   1
    73    36    68   1
    74    37    69   1
    75    37    70   1
@<TRIPOS>SUBSTRUCTURE
     1  MOL      2

