@<TRIPOS>MOLECULE
3e93_ligand_064
    70    75
SMALL
GAST_HUCK
****
This file was generated by PARSER (from files_GN.cpp)

@<TRIPOS>ATOM
      1 O25        36.7594   20.3619   41.6500 O.2         1 MOL      -0.3760
      2 C22        36.8186   19.8763   40.5241 C.2         1 MOL       0.2274
      3 N24        36.1533   18.7594   40.2374 N.am        1 MOL      -0.2370
      4 C26        35.3281   17.9556   40.9889 C.ar        1 MOL       0.0536
      5 C27        34.7238   18.2984   42.2285 C.ar        1 MOL      -0.0255
      6 C29        33.8786   17.4150   42.9610 C.ar        1 MOL       0.0259
      7 C32        33.6395   16.1512   42.3546 C.ar        1 MOL      -0.0595
      8 C30        34.2192   15.7836   41.1273 C.ar        1 MOL      -0.0865
      9 C28        35.0560   16.6835   40.4513 C.ar        1 MOL      -0.0544
     10 N31        33.3248   17.7576   44.1879 N.pl3       1 MOL      -0.3075
     11 C33        32.9650   16.7661   45.2007 C.3         1 MOL       0.0499
     12 C35        33.7050   17.0757   46.5300 C.3         1 MOL       0.0673
     13 O37        33.4954   18.4402   46.9509 O.3         1 MOL      -0.3759
     14 C36        33.8517   19.4057   45.9432 C.3         1 MOL       0.0673
     15 C34        33.0757   19.1284   44.6304 C.3         1 MOL       0.0499
     16 C19        37.6482   20.5017   39.5821 C.ar        1 MOL       0.0497
     17 C23        38.1729   19.8016   38.4640 C.ar        1 MOL      -0.0479
     18 C20        39.0272   20.4311   37.5409 C.ar        1 MOL      -0.0536
     19 C18        39.3935   21.7843   37.6890 C.ar        1 MOL      -0.0326
     20 C21        40.3102   22.4152   36.7039 C.3         1 MOL      -0.0276
     21 C15        38.8676   22.5082   38.7907 C.ar        1 MOL      -0.0123
     22 C17        38.0212   21.8631   39.7213 C.ar        1 MOL      -0.0399
     23 C12        39.1439   23.8819   38.9894 C.ar        1 MOL      -0.0269
     24 C9         40.2712   24.2828   39.7422 C.ar        1 MOL      -0.0647
     25 C4         40.5429   25.6510   39.9564 C.ar        1 MOL      -0.0614
     26 C1         39.6839   26.6300   39.4116 C.ar        1 MOL       0.0282
     27 C3         38.5936   26.2159   38.6450 C.ar        1 MOL       0.1528
     28 O8         37.9395   27.2951   38.1850 O.3         1 MOL      -0.1790
     29 C7         38.2976   24.8602   38.4258 C.ar        1 MOL      -0.0179
     30 C2         39.6074   28.0325   39.4195 C.2         1 MOL       0.0534
     31 N6         38.5475   28.3532   38.6401 N.2         1 MOL      -0.1500
     32 C5         40.4016   29.1209   40.0727 C.3         1 MOL       0.0120
     33 C10        41.5079   28.7060   41.0915 C.3         1 MOL       0.0001
     34 C13        40.9093   28.1884   42.4307 C.3         1 MOL      -0.0317
     35 N16        39.9721   29.1715   43.0166 N.4         1 MOL       0.2272
     36 C14        38.8891   29.5974   42.1033 C.3         1 MOL      -0.0317
     37 C11        39.4754   30.1627   40.7858 C.3         1 MOL       0.0001
     38 H1         36.2858   18.4335   39.3338 H           1 MOL       0.2248
     39 H2         34.9312   19.2063   42.6261 H           1 MOL       0.0391
     40 H3         32.9813   15.4862   42.7656 H           1 MOL       0.0393
     41 H4         34.0278   14.8668   40.7211 H           1 MOL       0.0546
     42 H5         35.4637   16.3968   39.5555 H           1 MOL       0.0398
     43 H6         33.2280   15.7377   44.9463 H           1 MOL       0.0536
     44 H7         31.8843   16.8017   45.3692 H           1 MOL       0.0536
     45 H8         34.7763   16.8857   46.4068 H           1 MOL       0.0579
     46 H9         33.3330   16.4129   47.3138 H           1 MOL       0.0579
     47 H10        34.9289   19.3754   45.7543 H           1 MOL       0.0579
     48 H11        33.6010   20.3990   46.3195 H           1 MOL       0.0579
     49 H12        32.0058   19.2386   44.8358 H           1 MOL       0.0536
     50 H13        33.3191   19.9035   43.9040 H           1 MOL       0.0536
     51 H14        37.9565   18.8144   38.3137 H           1 MOL       0.0652
     52 H15        39.3820   19.8793   36.7558 H           1 MOL       0.0569
     53 H16        40.6264   21.7237   35.9271 H           1 MOL       0.0406
     54 H17        41.2042   22.7745   37.2151 H           1 MOL       0.0406
     55 H18        39.8151   23.2593   36.2246 H           1 MOL       0.0406
     56 H19        37.6517   22.4082   40.5120 H           1 MOL       0.0658
     57 H20        40.9018   23.5850   40.1475 H           1 MOL       0.0538
     58 H21        41.3645   25.9006   40.5054 H           1 MOL       0.0598
     59 H22        37.4791   24.6017   37.8693 H           1 MOL       0.0568
     60 H23        40.9044   29.6473   39.2535 H           1 MOL       0.0460
     61 H24        42.1172   29.5861   41.3173 H           1 MOL       0.0340
     62 H25        42.1802   27.9783   40.6444 H           1 MOL       0.0340
     63 H26        41.7141   28.0199   43.1488 H           1 MOL       0.0815
     64 H27        40.3793   27.2443   42.2934 H           1 MOL       0.0815
     65 H28        40.5070   30.0000   43.2889 H           1 MOL       0.2013
     66 H29        39.5508   28.7633   43.8546 H           1 MOL       0.2013
     67 H30        38.3054   30.3745   42.6004 H           1 MOL       0.0815
     68 H31        38.2238   28.7550   41.8941 H           1 MOL       0.0815
     69 H32        38.6578   30.4810   40.1354 H           1 MOL       0.0340
     70 H33        40.0610   31.0568   41.0257 H           1 MOL       0.0340
@<TRIPOS>BOND
     1     1     2   2
     2     2     3  am
     3     2    16   1
     4     3     4   1
     5     4     5  ar
     6     4     9  ar
     7     5     6  ar
     8     6     7  ar
     9     6    10   1
    10     7     8  ar
    11     8     9  ar
    12    10    11   1
    13    10    15   1
    14    11    12   1
    15    12    13   1
    16    13    14   1
    17    14    15   1
    18    16    17  ar
    19    16    22  ar
    20    17    18  ar
    21    18    19  ar
    22    19    20   1
    23    19    21  ar
    24    21    22  ar
    25    21    23   1
    26    23    24  ar
    27    23    29  ar
    28    24    25  ar
    29    25    26  ar
    30    26    27  ar
    31    26    30   1
    32    27    28   1
    33    27    29  ar
    34    28    31   1
    35    30    31   2
    36    30    32   1
    37    32    33   1
    38    32    37   1
    39    33    34   1
    40    34    35   1
    41    35    36   1
    42    36    37   1
    43     3    38   1
    44     5    39   1
    45     7    40   1
    46     8    41   1
    47     9    42   1
    48    11    43   1
    49    11    44   1
    50    12    45   1
    51    12    46   1
    52    14    47   1
    53    14    48   1
    54    15    49   1
    55    15    50   1
    56    17    51   1
    57    18    52   1
    58    20    53   1
    59    20    54   1
    60    20    55   1
    61    22    56   1
    62    24    57   1
    63    25    58   1
    64    29    59   1
    65    32    60   1
    66    33    61   1
    67    33    62   1
    68    34    63   1
    69    34    64   1
    70    35    65   1
    71    35    66   1
    72    36    67   1
    73    36    68   1
    74    37    69   1
    75    37    70   1
@<TRIPOS>SUBSTRUCTURE
     1  MOL      2

