@<TRIPOS>MOLECULE
3e93_ligand_052
    70    75
SMALL
GAST_HUCK
****
This file was generated by PARSER (from files_GN.cpp)

@<TRIPOS>ATOM
      1 O25        38.9985   23.3648   36.8821 O.2         1 MOL      -0.3760
      2 C22        38.4024   23.1378   37.9307 C.2         1 MOL       0.2274
      3 N24        37.9735   24.1414   38.6949 N.am        1 MOL      -0.2370
      4 C26        38.1373   25.4806   38.4704 C.ar        1 MOL       0.0536
      5 C27        38.5768   26.2797   39.5475 C.ar        1 MOL      -0.0255
      6 C29        38.9018   27.6496   39.3836 C.ar        1 MOL       0.0259
      7 C32        38.7323   28.2109   38.0939 C.ar        1 MOL      -0.0595
      8 C30        38.2237   27.4494   37.0276 C.ar        1 MOL      -0.0865
      9 C28        37.9339   26.0879   37.2110 C.ar        1 MOL      -0.0544
     10 N31        39.3980   28.3898   40.4298 N.pl3       1 MOL      -0.3075
     11 C33        40.5228   29.2920   40.2598 C.3         1 MOL       0.0499
     12 C35        41.6499   28.8681   41.2394 C.3         1 MOL       0.0673
     13 O37        41.1631   28.8062   42.5949 O.3         1 MOL      -0.3759
     14 C36        40.0367   27.9235   42.7669 C.3         1 MOL       0.0673
     15 C34        38.8921   28.2880   41.7871 C.3         1 MOL       0.0499
     16 C19        38.3631   21.8340   38.4188 C.ar        1 MOL       0.0497
     17 C23        37.2594   21.3606   39.1683 C.ar        1 MOL      -0.0479
     18 C20        37.2501   20.0553   39.6888 C.ar        1 MOL      -0.0536
     19 C18        38.3509   19.1897   39.4987 C.ar        1 MOL      -0.0326
     20 C21        38.3373   17.8507   40.1441 C.3         1 MOL      -0.0276
     21 C15        39.4745   19.6608   38.7675 C.ar        1 MOL      -0.0123
     22 C17        39.4570   20.9616   38.2198 C.ar        1 MOL      -0.0399
     23 C12        40.6326   18.8785   38.5381 C.ar        1 MOL      -0.0269
     24 C9         41.8617   19.2253   39.1588 C.ar        1 MOL      -0.0647
     25 C4         43.0600   18.5783   38.7895 C.ar        1 MOL      -0.0614
     26 C1         43.0119   17.6083   37.7738 C.ar        1 MOL       0.0282
     27 C3         41.8023   17.2339   37.2018 C.ar        1 MOL       0.1528
     28 O8         42.0445   16.2844   36.2752 O.3         1 MOL      -0.1790
     29 C7         40.5993   17.8545   37.5665 C.ar        1 MOL      -0.0179
     30 C2         43.9807   16.8523   37.1205 C.2         1 MOL       0.0534
     31 N6         43.3343   16.0616   36.2396 N.2         1 MOL      -0.1500
     32 C5         45.4532   16.9184   37.3351 C.3         1 MOL       0.0120
     33 C10        46.0727   18.2459   36.7986 C.3         1 MOL       0.0001
     34 C13        46.2075   18.2436   35.2544 C.3         1 MOL      -0.0317
     35 N16        47.0076   17.0821   34.8063 N.4         1 MOL       0.2272
     36 C14        46.4463   15.7724   35.2163 C.3         1 MOL      -0.0317
     37 C11        46.2252   15.6927   36.7539 C.3         1 MOL       0.0001
     38 H1         37.6718   23.8947   39.5849 H           1 MOL       0.2248
     39 H2         38.7458   25.8232   40.4436 H           1 MOL       0.0391
     40 H3         38.9221   29.2010   37.9302 H           1 MOL       0.0393
     41 H4         38.0747   27.8873   36.1144 H           1 MOL       0.0546
     42 H5         37.5671   25.5473   36.4198 H           1 MOL       0.0398
     43 H6         40.2132   30.3153   40.4857 H           1 MOL       0.0536
     44 H7         40.9505   29.2851   39.2537 H           1 MOL       0.0536
     45 H8         42.4620   29.5952   41.2024 H           1 MOL       0.0579
     46 H9         42.0589   27.8955   40.9442 H           1 MOL       0.0579
     47 H10        39.6784   28.0234   43.7947 H           1 MOL       0.0579
     48 H11        40.3466   26.8859   42.6157 H           1 MOL       0.0579
     49 H12        38.0731   27.5787   41.9004 H           1 MOL       0.0536
     50 H13        38.4913   29.2670   42.0742 H           1 MOL       0.0536
     51 H14        36.4492   21.9594   39.3435 H           1 MOL       0.0652
     52 H15        36.4423   19.7540   40.2434 H           1 MOL       0.0569
     53 H16        37.3434   17.5708   40.5022 H           1 MOL       0.0406
     54 H17        39.0211   17.8660   40.9980 H           1 MOL       0.0406
     55 H18        38.6597   17.0746   39.4415 H           1 MOL       0.0406
     56 H19        40.2763   21.2847   37.6929 H           1 MOL       0.0658
     57 H20        41.8968   19.9684   39.8647 H           1 MOL       0.0538
     58 H21        43.9436   18.8420   39.2265 H           1 MOL       0.0598
     59 H22        39.7284   17.5914   37.0939 H           1 MOL       0.0568
     60 H23        45.6013   16.8928   38.4195 H           1 MOL       0.0460
     61 H24        47.0743   18.3664   37.2281 H           1 MOL       0.0340
     62 H25        45.4876   19.1059   37.1061 H           1 MOL       0.0340
     63 H26        46.7129   19.1534   34.9301 H           1 MOL       0.0815
     64 H27        45.2224   18.2183   34.7852 H           1 MOL       0.0815
     65 H28        47.9440   17.1638   35.2096 H           1 MOL       0.2013
     66 H29        47.1008   17.0926   33.7833 H           1 MOL       0.2013
     67 H30        47.1496   14.9911   34.9175 H           1 MOL       0.0815
     68 H31        45.5070   15.5971   34.6849 H           1 MOL       0.0815
     69 H32        45.6983   14.7620   36.9943 H           1 MOL       0.0340
     70 H33        47.2048   15.6345   37.2313 H           1 MOL       0.0340
@<TRIPOS>BOND
     1     1     2   2
     2     2     3  am
     3     2    16   1
     4     3     4   1
     5     4     5  ar
     6     4     9  ar
     7     5     6  ar
     8     6     7  ar
     9     6    10   1
    10     7     8  ar
    11     8     9  ar
    12    10    11   1
    13    10    15   1
    14    11    12   1
    15    12    13   1
    16    13    14   1
    17    14    15   1
    18    16    17  ar
    19    16    22  ar
    20    17    18  ar
    21    18    19  ar
    22    19    20   1
    23    19    21  ar
    24    21    22  ar
    25    21    23   1
    26    23    24  ar
    27    23    29  ar
    28    24    25  ar
    29    25    26  ar
    30    26    27  ar
    31    26    30   1
    32    27    28   1
    33    27    29  ar
    34    28    31   1
    35    30    31   2
    36    30    32   1
    37    32    33   1
    38    32    37   1
    39    33    34   1
    40    34    35   1
    41    35    36   1
    42    36    37   1
    43     3    38   1
    44     5    39   1
    45     7    40   1
    46     8    41   1
    47     9    42   1
    48    11    43   1
    49    11    44   1
    50    12    45   1
    51    12    46   1
    52    14    47   1
    53    14    48   1
    54    15    49   1
    55    15    50   1
    56    17    51   1
    57    18    52   1
    58    20    53   1
    59    20    54   1
    60    20    55   1
    61    22    56   1
    62    24    57   1
    63    25    58   1
    64    29    59   1
    65    32    60   1
    66    33    61   1
    67    33    62   1
    68    34    63   1
    69    34    64   1
    70    35    65   1
    71    35    66   1
    72    36    67   1
    73    36    68   1
    74    37    69   1
    75    37    70   1
@<TRIPOS>SUBSTRUCTURE
     1  MOL      2

