@<TRIPOS>MOLECULE
3e93_ligand_046
    70    75
SMALL
GAST_HUCK
****
This file was generated by PARSER (from files_GN.cpp)

@<TRIPOS>ATOM
      1 O25        36.5871   19.7348   37.1100 O.2         1 MOL      -0.3760
      2 C22        37.6327   19.8503   37.7307 C.2         1 MOL       0.2274
      3 N24        37.7177   19.6269   39.0367 N.am        1 MOL      -0.2370
      4 C26        36.7764   19.1139   39.8799 C.ar        1 MOL       0.0536
      5 C27        36.6388   19.7152   41.1463 C.ar        1 MOL      -0.0255
      6 C29        35.7996   19.1482   42.1336 C.ar        1 MOL       0.0259
      7 C32        35.0998   17.9598   41.8468 C.ar        1 MOL      -0.0595
      8 C30        35.2162   17.3614   40.5817 C.ar        1 MOL      -0.0865
      9 C28        36.0549   17.9301   39.6037 C.ar        1 MOL      -0.0544
     10 N31        35.7371   19.6566   43.3922 N.pl3       1 MOL      -0.3075
     11 C33        35.2375   21.0051   43.5497 C.3         1 MOL       0.0499
     12 C35        34.9369   21.3054   45.0364 C.3         1 MOL       0.0673
     13 O37        36.0887   20.9900   45.8421 O.3         1 MOL      -0.3759
     14 C36        36.4814   19.6055   45.7550 C.3         1 MOL       0.0673
     15 C34        36.7834   19.2137   44.2896 C.3         1 MOL       0.0499
     16 C19        38.7424   20.3913   37.1071 C.ar        1 MOL       0.0497
     17 C23        39.9263   19.6358   37.0333 C.ar        1 MOL      -0.0479
     18 C20        41.1174   20.2223   36.5844 C.ar        1 MOL      -0.0536
     19 C18        41.1734   21.5892   36.2292 C.ar        1 MOL      -0.0326
     20 C21        42.5431   22.1217   35.9861 C.3         1 MOL      -0.0276
     21 C15        39.9730   22.3723   36.2826 C.ar        1 MOL      -0.0123
     22 C17        38.7678   21.7351   36.6824 C.ar        1 MOL      -0.0399
     23 C12        39.9078   23.7818   36.0242 C.ar        1 MOL      -0.0269
     24 C9         39.2912   24.6674   36.9565 C.ar        1 MOL      -0.0647
     25 C4         39.1545   26.0474   36.7008 C.ar        1 MOL      -0.0614
     26 C1         39.6872   26.5703   35.5092 C.ar        1 MOL       0.0282
     27 C3         40.2981   25.7235   34.5919 C.ar        1 MOL       0.1528
     28 O8         40.7204   26.4709   33.5451 O.3         1 MOL      -0.1790
     29 C7         40.3827   24.3353   34.8063 C.ar        1 MOL      -0.0179
     30 C2         39.7246   27.8425   34.9436 C.2         1 MOL       0.0534
     31 N6         40.3753   27.7134   33.7686 N.2         1 MOL      -0.1500
     32 C5         39.0516   29.0831   35.4289 C.3         1 MOL       0.0120
     33 C10        38.6549   30.0797   34.2885 C.3         1 MOL       0.0001
     34 C13        39.8485   30.9231   33.7641 C.3         1 MOL      -0.0317
     35 N16        40.5547   31.5859   34.8807 N.4         1 MOL       0.2272
     36 C14        41.0418   30.6566   35.9231 C.3         1 MOL      -0.0317
     37 C11        39.8825   29.8175   36.5224 C.3         1 MOL       0.0001
     38 H1         38.5369   19.9343   39.4643 H           1 MOL       0.2248
     39 H2         37.1865   20.5526   41.3691 H           1 MOL       0.0391
     40 H3         34.5060   17.5262   42.5613 H           1 MOL       0.0393
     41 H4         34.7064   16.4997   40.3833 H           1 MOL       0.0546
     42 H5         36.1700   17.4568   38.7090 H           1 MOL       0.0398
     43 H6         34.3121   21.1350   42.9773 H           1 MOL       0.0536
     44 H7         35.9712   21.7310   43.1845 H           1 MOL       0.0536
     45 H8         34.0690   20.7312   45.3730 H           1 MOL       0.0579
     46 H9         34.7091   22.3661   45.1518 H           1 MOL       0.0579
     47 H10        35.6980   18.9600   46.1652 H           1 MOL       0.0579
     48 H11        37.3817   19.4678   46.3566 H           1 MOL       0.0579
     49 H12        37.7304   19.6760   43.9909 H           1 MOL       0.0536
     50 H13        36.9096   18.1266   44.2490 H           1 MOL       0.0536
     51 H14        39.9450   18.6558   37.3318 H           1 MOL       0.0652
     52 H15        41.9625   19.6436   36.5828 H           1 MOL       0.0569
     53 H16        43.2332   21.3649   35.6026 H           1 MOL       0.0406
     54 H17        42.9489   22.4829   36.9300 H           1 MOL       0.0406
     55 H18        42.5431   22.9380   35.2713 H           1 MOL       0.0406
     56 H19        37.8973   22.2723   36.7259 H           1 MOL       0.0658
     57 H20        38.9160   24.3052   37.8358 H           1 MOL       0.0538
     58 H21        38.6750   26.6525   37.3688 H           1 MOL       0.0598
     59 H22        40.7860   23.7366   34.0759 H           1 MOL       0.0568
     60 H23        38.1139   28.7647   35.8901 H           1 MOL       0.0460
     61 H24        37.9051   30.7781   34.6752 H           1 MOL       0.0340
     62 H25        38.1971   29.5449   33.4532 H           1 MOL       0.0340
     63 H26        39.4775   31.6936   33.0826 H           1 MOL       0.0815
     64 H27        40.5470   30.2983   33.2043 H           1 MOL       0.0815
     65 H28        39.9113   32.2524   35.3152 H           1 MOL       0.2013
     66 H29        41.3507   32.1022   34.5041 H           1 MOL       0.2013
     67 H30        41.5027   31.2482   36.7162 H           1 MOL       0.0815
     68 H31        41.8054   29.9988   35.5016 H           1 MOL       0.0815
     69 H32        40.2796   29.1016   37.2456 H           1 MOL       0.0340
     70 H33        39.2206   30.4965   37.0694 H           1 MOL       0.0340
@<TRIPOS>BOND
     1     1     2   2
     2     2     3  am
     3     2    16   1
     4     3     4   1
     5     4     5  ar
     6     4     9  ar
     7     5     6  ar
     8     6     7  ar
     9     6    10   1
    10     7     8  ar
    11     8     9  ar
    12    10    11   1
    13    10    15   1
    14    11    12   1
    15    12    13   1
    16    13    14   1
    17    14    15   1
    18    16    17  ar
    19    16    22  ar
    20    17    18  ar
    21    18    19  ar
    22    19    20   1
    23    19    21  ar
    24    21    22  ar
    25    21    23   1
    26    23    24  ar
    27    23    29  ar
    28    24    25  ar
    29    25    26  ar
    30    26    27  ar
    31    26    30   1
    32    27    28   1
    33    27    29  ar
    34    28    31   1
    35    30    31   2
    36    30    32   1
    37    32    33   1
    38    32    37   1
    39    33    34   1
    40    34    35   1
    41    35    36   1
    42    36    37   1
    43     3    38   1
    44     5    39   1
    45     7    40   1
    46     8    41   1
    47     9    42   1
    48    11    43   1
    49    11    44   1
    50    12    45   1
    51    12    46   1
    52    14    47   1
    53    14    48   1
    54    15    49   1
    55    15    50   1
    56    17    51   1
    57    18    52   1
    58    20    53   1
    59    20    54   1
    60    20    55   1
    61    22    56   1
    62    24    57   1
    63    25    58   1
    64    29    59   1
    65    32    60   1
    66    33    61   1
    67    33    62   1
    68    34    63   1
    69    34    64   1
    70    35    65   1
    71    35    66   1
    72    36    67   1
    73    36    68   1
    74    37    69   1
    75    37    70   1
@<TRIPOS>SUBSTRUCTURE
     1  MOL      2

