@<TRIPOS>MOLECULE
3e93_ligand_009
    70    75
SMALL
GAST_HUCK
****
This file was generated by PARSER (from files_GN.cpp)

@<TRIPOS>ATOM
      1 O25        37.5363   22.9144   40.7381 O.2         1 MOL      -0.3760
      2 C22        38.6646   23.0709   41.1924 C.2         1 MOL       0.2274
      3 N24        39.3753   22.0512   41.6822 N.am        1 MOL      -0.2370
      4 C26        39.0294   20.7297   41.8221 C.ar        1 MOL       0.0536
      5 C27        38.0968   20.0481   41.0060 C.ar        1 MOL      -0.0255
      6 C29        37.6462   18.7431   41.3272 C.ar        1 MOL       0.0259
      7 C32        38.1995   18.1056   42.4590 C.ar        1 MOL      -0.0595
      8 C30        39.2115   18.7212   43.2059 C.ar        1 MOL      -0.0865
      9 C28        39.6361   20.0201   42.8794 C.ar        1 MOL      -0.0544
     10 N31        36.7012   18.1281   40.5540 N.pl3       1 MOL      -0.3075
     11 C33        36.8421   18.0290   39.1148 C.3         1 MOL       0.0499
     12 C35        36.6662   16.5482   38.6825 C.3         1 MOL       0.0673
     13 O37        35.4399   15.9993   39.2059 O.3         1 MOL      -0.3759
     14 C36        35.3484   16.0661   40.6438 C.3         1 MOL       0.0673
     15 C34        35.5173   17.5243   41.1358 C.3         1 MOL       0.0499
     16 C19        39.1927   24.3587   41.1996 C.ar        1 MOL       0.0497
     17 C23        39.8788   24.8511   42.3331 C.ar        1 MOL      -0.0479
     18 C20        40.5007   26.1052   42.3008 C.ar        1 MOL      -0.0536
     19 C18        40.4892   26.9015   41.1334 C.ar        1 MOL      -0.0326
     20 C21        41.3590   28.1119   41.1026 C.3         1 MOL      -0.0276
     21 C15        39.7305   26.4580   40.0060 C.ar        1 MOL      -0.0123
     22 C17        39.0839   25.1996   40.0692 C.ar        1 MOL      -0.0399
     23 C12        39.6437   27.1814   38.7763 C.ar        1 MOL      -0.0269
     24 C9         39.3081   28.5640   38.7562 C.ar        1 MOL      -0.0647
     25 C4         39.2970   29.3061   37.5514 C.ar        1 MOL      -0.0614
     26 C1         39.5964   28.6475   36.3463 C.ar        1 MOL       0.0282
     27 C3         39.8390   27.2828   36.3417 C.ar        1 MOL       0.1528
     28 O8         40.0436   26.8989   35.0618 O.3         1 MOL      -0.1790
     29 C7         39.8759   26.5381   37.5320 C.ar        1 MOL      -0.0179
     30 C2         39.7193   29.0583   35.0179 C.2         1 MOL       0.0534
     31 N6         39.9648   27.9489   34.2851 N.2         1 MOL      -0.1500
     32 C5         39.6741   30.4582   34.5022 C.3         1 MOL       0.0120
     33 C10        39.6632   30.5447   32.9391 C.3         1 MOL       0.0001
     34 C13        39.6856   32.0157   32.4469 C.3         1 MOL      -0.0317
     35 N16        40.8180   32.7674   33.0350 N.4         1 MOL       0.2272
     36 C14        40.8512   32.7454   34.5141 C.3         1 MOL      -0.0317
     37 C11        40.8715   31.2945   35.0583 C.3         1 MOL       0.0001
     38 H1         40.2445   22.2862   42.0578 H           1 MOL       0.2248
     39 H2         37.7001   20.5236   40.1919 H           1 MOL       0.0391
     40 H3         37.9159   17.1601   42.7104 H           1 MOL       0.0393
     41 H4         39.6400   18.2296   43.9900 H           1 MOL       0.0546
     42 H5         40.3671   20.4572   43.4452 H           1 MOL       0.0398
     43 H6         37.8240   18.3665   38.7728 H           1 MOL       0.0536
     44 H7         36.0907   18.6484   38.6286 H           1 MOL       0.0536
     45 H8         37.5165   15.9530   39.0275 H           1 MOL       0.0579
     46 H9         36.6319   16.4886   37.5932 H           1 MOL       0.0579
     47 H10        36.1062   15.4210   41.1020 H           1 MOL       0.0579
     48 H11        34.3629   15.6911   40.9405 H           1 MOL       0.0579
     49 H12        34.6404   18.0943   40.8229 H           1 MOL       0.0536
     50 H13        35.5153   17.5292   42.2306 H           1 MOL       0.0536
     51 H14        39.9328   24.2907   43.1966 H           1 MOL       0.0652
     52 H15        41.0062   26.4042   43.1365 H           1 MOL       0.0569
     53 H16        41.8497   28.2940   42.0734 H           1 MOL       0.0406
     54 H17        40.7883   29.0132   40.8517 H           1 MOL       0.0406
     55 H18        42.1545   27.9549   40.3500 H           1 MOL       0.0406
     56 H19        38.5514   24.8650   39.2609 H           1 MOL       0.0658
     57 H20        39.0681   29.0510   39.6270 H           1 MOL       0.0538
     58 H21        39.0750   30.3066   37.5519 H           1 MOL       0.0598
     59 H22        40.0895   25.5410   37.4859 H           1 MOL       0.0568
     60 H23        38.7389   30.9102   34.8600 H           1 MOL       0.0460
     61 H24        38.7660   30.0517   32.5513 H           1 MOL       0.0340
     62 H25        40.5370   30.0285   32.5342 H           1 MOL       0.0340
     63 H26        38.7442   32.5073   32.7088 H           1 MOL       0.0815
     64 H27        39.7832   32.0335   31.3626 H           1 MOL       0.0815
     65 H28        40.7638   33.7453   32.7327 H           1 MOL       0.2013
     66 H29        41.6904   32.3668   32.6852 H           1 MOL       0.2013
     67 H30        39.9800   33.2709   34.9046 H           1 MOL       0.0815
     68 H31        41.7456   33.2711   34.8521 H           1 MOL       0.0815
     69 H32        41.8170   30.8184   34.7676 H           1 MOL       0.0340
     70 H33        40.8373   31.3322   36.1504 H           1 MOL       0.0340
@<TRIPOS>BOND
     1     1     2   2
     2     2     3  am
     3     2    16   1
     4     3     4   1
     5     4     5  ar
     6     4     9  ar
     7     5     6  ar
     8     6     7  ar
     9     6    10   1
    10     7     8  ar
    11     8     9  ar
    12    10    11   1
    13    10    15   1
    14    11    12   1
    15    12    13   1
    16    13    14   1
    17    14    15   1
    18    16    17  ar
    19    16    22  ar
    20    17    18  ar
    21    18    19  ar
    22    19    20   1
    23    19    21  ar
    24    21    22  ar
    25    21    23   1
    26    23    24  ar
    27    23    29  ar
    28    24    25  ar
    29    25    26  ar
    30    26    27  ar
    31    26    30   1
    32    27    28   1
    33    27    29  ar
    34    28    31   1
    35    30    31   2
    36    30    32   1
    37    32    33   1
    38    32    37   1
    39    33    34   1
    40    34    35   1
    41    35    36   1
    42    36    37   1
    43     3    38   1
    44     5    39   1
    45     7    40   1
    46     8    41   1
    47     9    42   1
    48    11    43   1
    49    11    44   1
    50    12    45   1
    51    12    46   1
    52    14    47   1
    53    14    48   1
    54    15    49   1
    55    15    50   1
    56    17    51   1
    57    18    52   1
    58    20    53   1
    59    20    54   1
    60    20    55   1
    61    22    56   1
    62    24    57   1
    63    25    58   1
    64    29    59   1
    65    32    60   1
    66    33    61   1
    67    33    62   1
    68    34    63   1
    69    34    64   1
    70    35    65   1
    71    35    66   1
    72    36    67   1
    73    36    68   1
    74    37    69   1
    75    37    70   1
@<TRIPOS>SUBSTRUCTURE
     1  MOL      2

