@<TRIPOS>MOLECULE
3e93_ligand_034
    70    75
SMALL
GAST_HUCK
****
This file was generated by PARSER (from files_GN.cpp)

@<TRIPOS>ATOM
      1 O25        38.4305   20.6309   38.7234 O.2         1 MOL      -0.3760
      2 C22        38.2300   21.8394   38.6797 C.2         1 MOL       0.2274
      3 N24        39.0878   22.6440   38.0498 N.am        1 MOL      -0.2370
      4 C26        40.3044   22.3123   37.5034 C.ar        1 MOL       0.0536
      5 C27        41.1722   21.3431   38.0655 C.ar        1 MOL      -0.0255
      6 C29        42.3677   20.9610   37.4183 C.ar        1 MOL       0.0259
      7 C32        42.7262   21.5985   36.2106 C.ar        1 MOL      -0.0595
      8 C30        41.9298   22.6377   35.6973 C.ar        1 MOL      -0.0865
      9 C28        40.7287   22.9923   36.3409 C.ar        1 MOL      -0.0544
     10 N31        43.1606   19.9937   37.9525 N.pl3       1 MOL      -0.3075
     11 C33        43.8259   20.1903   39.2181 C.3         1 MOL       0.0499
     12 C35        43.4445   19.0704   40.2192 C.3         1 MOL       0.0673
     13 O37        43.5943   17.7725   39.6090 O.3         1 MOL      -0.3759
     14 C36        42.8404   17.6201   38.3834 C.3         1 MOL       0.0673
     15 C34        43.2561   18.6904   37.3407 C.3         1 MOL       0.0499
     16 C19        37.0714   22.3203   39.2923 C.ar        1 MOL       0.0497
     17 C23        36.3246   23.3880   38.7454 C.ar        1 MOL      -0.0479
     18 C20        35.1369   23.8239   39.3584 C.ar        1 MOL      -0.0536
     19 C18        34.6698   23.2344   40.5575 C.ar        1 MOL      -0.0326
     20 C21        33.3836   23.6953   41.1482 C.3         1 MOL      -0.0276
     21 C15        35.4295   22.1817   41.1412 C.ar        1 MOL      -0.0123
     22 C17        36.6020   21.7301   40.4912 C.ar        1 MOL      -0.0399
     23 C12        35.0484   21.5409   42.3515 C.ar        1 MOL      -0.0269
     24 C9         35.1441   22.2186   43.5965 C.ar        1 MOL      -0.0647
     25 C4         34.7565   21.5858   44.7978 C.ar        1 MOL      -0.0614
     26 C1         34.2739   20.2644   44.7433 C.ar        1 MOL       0.0282
     27 C3         34.1901   19.5964   43.5269 C.ar        1 MOL       0.1528
     28 O8         33.6876   18.3657   43.7506 O.3         1 MOL      -0.1790
     29 C7         34.5782   20.2054   42.3239 C.ar        1 MOL      -0.0179
     30 C2         33.7916   19.3706   45.6967 C.2         1 MOL       0.0534
     31 N6         33.4544   18.2451   45.0325 N.2         1 MOL      -0.1500
     32 C5         33.6298   19.6027   47.1603 C.3         1 MOL       0.0120
     33 C10        34.9596   19.3908   47.9462 C.3         1 MOL       0.0001
     34 C13        35.2770   17.8896   48.1721 C.3         1 MOL      -0.0317
     35 N16        34.1359   17.1784   48.7945 N.4         1 MOL       0.2272
     36 C14        32.8615   17.2903   48.0522 C.3         1 MOL      -0.0317
     37 C11        32.4787   18.7751   47.8129 C.3         1 MOL       0.0001
     38 H1         38.8115   23.5690   37.9387 H           1 MOL       0.2248
     39 H2         40.9251   20.8829   38.9439 H           1 MOL       0.0391
     40 H3         43.5971   21.3470   35.7353 H           1 MOL       0.0393
     41 H4         42.2266   23.1392   34.8551 H           1 MOL       0.0546
     42 H5         40.1516   23.7375   35.9418 H           1 MOL       0.0398
     43 H6         43.6057   21.1677   39.6604 H           1 MOL       0.0536
     44 H7         44.9015   20.1390   39.0362 H           1 MOL       0.0536
     45 H8         42.4201   19.2096   40.5719 H           1 MOL       0.0579
     46 H9         44.1087   19.1218   41.0834 H           1 MOL       0.0579
     47 H10        41.7681   17.6972   38.5940 H           1 MOL       0.0579
     48 H11        43.0305   16.6234   37.9797 H           1 MOL       0.0579
     49 H12        44.2879   18.5092   37.0292 H           1 MOL       0.0536
     50 H13        42.6153   18.5937   36.4577 H           1 MOL       0.0536
     51 H14        36.6164   23.8329   37.8709 H           1 MOL       0.0652
     52 H15        34.6071   24.5768   38.9104 H           1 MOL       0.0569
     53 H16        32.8923   24.4597   40.5429 H           1 MOL       0.0406
     54 H17        33.5565   24.1173   42.1390 H           1 MOL       0.0406
     55 H18        32.6979   22.8500   41.2379 H           1 MOL       0.0406
     56 H19        37.1410   20.9665   40.9164 H           1 MOL       0.0658
     57 H20        35.4970   23.1782   43.6364 H           1 MOL       0.0538
     58 H21        34.8166   22.0844   45.6881 H           1 MOL       0.0598
     59 H22        34.5030   19.6841   41.4474 H           1 MOL       0.0568
     60 H23        33.3460   20.6518   47.2739 H           1 MOL       0.0460
     61 H24        34.8694   19.8721   48.9250 H           1 MOL       0.0340
     62 H25        35.7962   19.8675   47.4264 H           1 MOL       0.0340
     63 H26        36.1380   17.8006   48.8380 H           1 MOL       0.0815
     64 H27        35.5350   17.4137   47.2229 H           1 MOL       0.0815
     65 H28        33.9929   17.5562   49.7339 H           1 MOL       0.2013
     66 H29        34.3764   16.1883   48.8784 H           1 MOL       0.2013
     67 H30        32.0769   16.8051   48.6366 H           1 MOL       0.0815
     68 H31        32.9454   16.7522   47.1061 H           1 MOL       0.0815
     69 H32        31.5771   18.8305   47.1967 H           1 MOL       0.0340
     70 H33        32.2347   19.2203   48.7831 H           1 MOL       0.0340
@<TRIPOS>BOND
     1     1     2   2
     2     2     3  am
     3     2    16   1
     4     3     4   1
     5     4     5  ar
     6     4     9  ar
     7     5     6  ar
     8     6     7  ar
     9     6    10   1
    10     7     8  ar
    11     8     9  ar
    12    10    11   1
    13    10    15   1
    14    11    12   1
    15    12    13   1
    16    13    14   1
    17    14    15   1
    18    16    17  ar
    19    16    22  ar
    20    17    18  ar
    21    18    19  ar
    22    19    20   1
    23    19    21  ar
    24    21    22  ar
    25    21    23   1
    26    23    24  ar
    27    23    29  ar
    28    24    25  ar
    29    25    26  ar
    30    26    27  ar
    31    26    30   1
    32    27    28   1
    33    27    29  ar
    34    28    31   1
    35    30    31   2
    36    30    32   1
    37    32    33   1
    38    32    37   1
    39    33    34   1
    40    34    35   1
    41    35    36   1
    42    36    37   1
    43     3    38   1
    44     5    39   1
    45     7    40   1
    46     8    41   1
    47     9    42   1
    48    11    43   1
    49    11    44   1
    50    12    45   1
    51    12    46   1
    52    14    47   1
    53    14    48   1
    54    15    49   1
    55    15    50   1
    56    17    51   1
    57    18    52   1
    58    20    53   1
    59    20    54   1
    60    20    55   1
    61    22    56   1
    62    24    57   1
    63    25    58   1
    64    29    59   1
    65    32    60   1
    66    33    61   1
    67    33    62   1
    68    34    63   1
    69    34    64   1
    70    35    65   1
    71    35    66   1
    72    36    67   1
    73    36    68   1
    74    37    69   1
    75    37    70   1
@<TRIPOS>SUBSTRUCTURE
     1  MOL      2

