@<TRIPOS>MOLECULE
3e93_ligand_085
    70    75
SMALL
GAST_HUCK
****
This file was generated by PARSER (from files_GN.cpp)

@<TRIPOS>ATOM
      1 O25        38.4201   21.8079   37.1616 O.2         1 MOL      -0.3760
      2 C22        38.4318   21.2447   38.2555 C.2         1 MOL       0.2274
      3 N24        39.0279   21.8197   39.2902 N.am        1 MOL      -0.2370
      4 C26        39.6240   23.0486   39.4050 C.ar        1 MOL       0.0536
      5 C27        39.2782   24.1914   38.6369 C.ar        1 MOL      -0.0255
      6 C29        39.9216   25.4267   38.8538 C.ar        1 MOL       0.0259
      7 C32        40.9089   25.5377   39.8521 C.ar        1 MOL      -0.0595
      8 C30        41.2619   24.4118   40.6183 C.ar        1 MOL      -0.0865
      9 C28        40.6139   23.1852   40.4015 C.ar        1 MOL      -0.0544
     10 N31        39.5619   26.5245   38.1350 N.pl3       1 MOL      -0.3075
     11 C33        40.1248   26.7717   36.8328 C.3         1 MOL       0.0499
     12 C35        38.9954   26.9588   35.7907 C.3         1 MOL       0.0673
     13 O37        37.9993   27.8887   36.2680 O.3         1 MOL      -0.3759
     14 C36        37.4248   27.5135   37.5359 C.3         1 MOL       0.0673
     15 C34        38.5247   27.3971   38.6202 C.3         1 MOL       0.0499
     16 C19        37.8766   19.9628   38.3616 C.ar        1 MOL       0.0497
     17 C23        37.8007   19.1191   37.2283 C.ar        1 MOL      -0.0479
     18 C20        37.2332   17.8431   37.3047 C.ar        1 MOL      -0.0536
     19 C18        36.6913   17.3559   38.5166 C.ar        1 MOL      -0.0326
     20 C21        36.0567   16.0114   38.5108 C.3         1 MOL      -0.0276
     21 C15        36.7461   18.1834   39.6794 C.ar        1 MOL      -0.0123
     22 C17        37.3493   19.4630   39.5799 C.ar        1 MOL      -0.0399
     23 C12        36.1616   17.8029   40.9290 C.ar        1 MOL      -0.0269
     24 C9         35.1569   18.6117   41.5240 C.ar        1 MOL      -0.0647
     25 C4         34.5606   18.2637   42.7528 C.ar        1 MOL      -0.0614
     26 C1         34.9882   17.0929   43.4116 C.ar        1 MOL       0.0282
     27 C3         35.9646   16.2924   42.8328 C.ar        1 MOL       0.1528
     28 O8         36.1872   15.2398   43.6483 O.3         1 MOL      -0.1790
     29 C7         36.5709   16.6253   41.6080 C.ar        1 MOL      -0.0179
     30 C2         34.6592   16.4768   44.6225 C.2         1 MOL       0.0534
     31 N6         35.4156   15.3587   44.6980 N.2         1 MOL      -0.1500
     32 C5         33.7205   16.9024   45.6999 C.3         1 MOL       0.0120
     33 C10        32.2283   16.7897   45.2648 C.3         1 MOL       0.0001
     34 C13        31.2704   17.2999   46.3730 C.3         1 MOL      -0.0317
     35 N16        31.6316   18.6719   46.7915 N.4         1 MOL       0.2272
     36 C14        33.0171   18.8012   47.2985 C.3         1 MOL      -0.0317
     37 C11        34.0508   18.3258   46.2438 C.3         1 MOL       0.0001
     38 H1         39.1277   21.2537   40.0737 H           1 MOL       0.2248
     39 H2         38.5232   24.1436   37.9485 H           1 MOL       0.0391
     40 H3         41.3817   26.4302   40.0181 H           1 MOL       0.0393
     41 H4         41.9821   24.4925   41.3409 H           1 MOL       0.0546
     42 H5         40.8746   22.3824   40.9797 H           1 MOL       0.0398
     43 H6         40.7813   25.9626   36.4981 H           1 MOL       0.0536
     44 H7         40.7208   27.6884   36.8814 H           1 MOL       0.0536
     45 H8         38.5315   25.9960   35.5660 H           1 MOL       0.0579
     46 H9         39.4262   27.3492   34.8676 H           1 MOL       0.0579
     47 H10        36.8913   26.5628   37.4442 H           1 MOL       0.0579
     48 H11        36.7016   28.2754   37.8300 H           1 MOL       0.0579
     49 H12        38.9504   28.3858   38.8175 H           1 MOL       0.0536
     50 H13        38.0703   27.0325   39.5488 H           1 MOL       0.0536
     51 H14        38.1720   19.4266   36.3253 H           1 MOL       0.0652
     52 H15        37.2133   17.2719   36.4541 H           1 MOL       0.0569
     53 H16        35.9106   15.6175   37.5005 H           1 MOL       0.0406
     54 H17        35.0758   16.0573   38.9826 H           1 MOL       0.0406
     55 H18        36.6855   15.3105   39.0615 H           1 MOL       0.0406
     56 H19        37.3831   20.0563   40.4153 H           1 MOL       0.0658
     57 H20        34.8476   19.4727   41.0647 H           1 MOL       0.0538
     58 H21        33.8321   18.8558   43.1523 H           1 MOL       0.0598
     59 H22        37.3103   16.0271   41.2360 H           1 MOL       0.0568
     60 H23        33.8528   16.2076   46.5385 H           1 MOL       0.0460
     61 H24        31.9833   15.7491   45.0382 H           1 MOL       0.0340
     62 H25        32.0579   17.3807   44.3653 H           1 MOL       0.0340
     63 H26        31.2964   16.6270   47.2359 H           1 MOL       0.0815
     64 H27        30.2464   17.3147   45.9919 H           1 MOL       0.0815
     65 H28        30.9853   18.9792   47.5226 H           1 MOL       0.2013
     66 H29        31.5258   19.2921   45.9860 H           1 MOL       0.2013
     67 H30        33.1265   18.2246   48.2218 H           1 MOL       0.0815
     68 H31        33.1985   19.8524   47.5355 H           1 MOL       0.0815
     69 H32        34.0608   19.0507   45.4267 H           1 MOL       0.0340
     70 H33        35.0453   18.3212   46.7004 H           1 MOL       0.0340
@<TRIPOS>BOND
     1     1     2   2
     2     2     3  am
     3     2    16   1
     4     3     4   1
     5     4     5  ar
     6     4     9  ar
     7     5     6  ar
     8     6     7  ar
     9     6    10   1
    10     7     8  ar
    11     8     9  ar
    12    10    11   1
    13    10    15   1
    14    11    12   1
    15    12    13   1
    16    13    14   1
    17    14    15   1
    18    16    17  ar
    19    16    22  ar
    20    17    18  ar
    21    18    19  ar
    22    19    20   1
    23    19    21  ar
    24    21    22  ar
    25    21    23   1
    26    23    24  ar
    27    23    29  ar
    28    24    25  ar
    29    25    26  ar
    30    26    27  ar
    31    26    30   1
    32    27    28   1
    33    27    29  ar
    34    28    31   1
    35    30    31   2
    36    30    32   1
    37    32    33   1
    38    32    37   1
    39    33    34   1
    40    34    35   1
    41    35    36   1
    42    36    37   1
    43     3    38   1
    44     5    39   1
    45     7    40   1
    46     8    41   1
    47     9    42   1
    48    11    43   1
    49    11    44   1
    50    12    45   1
    51    12    46   1
    52    14    47   1
    53    14    48   1
    54    15    49   1
    55    15    50   1
    56    17    51   1
    57    18    52   1
    58    20    53   1
    59    20    54   1
    60    20    55   1
    61    22    56   1
    62    24    57   1
    63    25    58   1
    64    29    59   1
    65    32    60   1
    66    33    61   1
    67    33    62   1
    68    34    63   1
    69    34    64   1
    70    35    65   1
    71    35    66   1
    72    36    67   1
    73    36    68   1
    74    37    69   1
    75    37    70   1
@<TRIPOS>SUBSTRUCTURE
     1  MOL      2

