@<TRIPOS>MOLECULE
3e93_ligand_036
    70    75
SMALL
GAST_HUCK
****
This file was generated by PARSER (from files_GN.cpp)

@<TRIPOS>ATOM
      1 O25        40.9078   16.1777   35.8420 O.2         1 MOL      -0.3760
      2 C22        41.9604   16.0262   36.4509 C.2         1 MOL       0.2274
      3 N24        42.7175   14.9527   36.2223 N.am        1 MOL      -0.2370
      4 C26        42.5192   14.0058   35.2611 C.ar        1 MOL       0.0536
      5 C27        42.1922   14.3485   33.9297 C.ar        1 MOL      -0.0255
      6 C29        41.9501   13.3850   32.9130 C.ar        1 MOL       0.0259
      7 C32        42.1022   12.0275   33.3155 C.ar        1 MOL      -0.0595
      8 C30        42.4931   11.6631   34.6183 C.ar        1 MOL      -0.0865
      9 C28        42.7089   12.6519   35.5870 C.ar        1 MOL      -0.0544
     10 N31        41.6143   13.7612   31.6184 N.pl3       1 MOL      -0.3075
     11 C33        41.2279   15.1156   31.2330 C.3         1 MOL       0.0499
     12 C35        42.2753   15.6794   30.2419 C.3         1 MOL       0.0673
     13 O37        42.3594   14.8167   29.0907 O.3         1 MOL      -0.3759
     14 C36        42.6719   13.4478   29.4152 C.3         1 MOL       0.0673
     15 C34        41.6964   12.8643   30.4737 C.3         1 MOL       0.0499
     16 C19        42.3067   16.9456   37.4417 C.ar        1 MOL       0.0497
     17 C23        43.6541   17.1367   37.8244 C.ar        1 MOL      -0.0479
     18 C20        43.9982   18.0603   38.8245 C.ar        1 MOL      -0.0536
     19 C18        43.0071   18.8167   39.4896 C.ar        1 MOL      -0.0326
     20 C21        43.4295   19.7904   40.5318 C.3         1 MOL      -0.0276
     21 C15        41.6453   18.6559   39.1034 C.ar        1 MOL      -0.0123
     22 C17        41.3217   17.7415   38.0750 C.ar        1 MOL      -0.0399
     23 C12        40.5718   19.3394   39.7360 C.ar        1 MOL      -0.0269
     24 C9         40.4099   19.2611   41.1428 C.ar        1 MOL      -0.0647
     25 C4         39.3396   19.9107   41.7898 C.ar        1 MOL      -0.0614
     26 C1         38.3886   20.5868   41.0067 C.ar        1 MOL       0.0282
     27 C3         38.5293   20.6537   39.6252 C.ar        1 MOL       0.1528
     28 O8         37.5010   21.3719   39.1273 O.3         1 MOL      -0.1790
     29 C7         39.6074   20.0410   38.9685 C.ar        1 MOL      -0.0179
     30 C2         37.2171   21.2780   41.3023 C.2         1 MOL       0.0534
     31 N6         36.7403   21.7401   40.1254 N.2         1 MOL      -0.1500
     32 C5         36.6159   21.5042   42.6489 C.3         1 MOL       0.0120
     33 C10        35.9495   20.2256   43.2516 C.3         1 MOL       0.0001
     34 C13        34.5737   19.9149   42.6108 C.3         1 MOL      -0.0317
     35 N16        33.6712   21.0877   42.6502 N.4         1 MOL       0.2272
     36 C14        34.2338   22.3061   42.0292 C.3         1 MOL      -0.0317
     37 C11        35.5922   22.6839   42.6803 C.3         1 MOL       0.0001
     38 H1         43.4258   14.7757   36.8604 H           1 MOL       0.2248
     39 H2         42.2078   15.3399   33.7011 H           1 MOL       0.0391
     40 H3         41.8974   11.2650   32.6749 H           1 MOL       0.0393
     41 H4         42.6113   10.6800   34.8721 H           1 MOL       0.0546
     42 H5         42.9833   12.3814   36.5354 H           1 MOL       0.0398
     43 H6         41.0899   15.8150   32.0546 H           1 MOL       0.0536
     44 H7         40.2597   15.0812   30.7267 H           1 MOL       0.0536
     45 H8         43.2489   15.7582   30.7325 H           1 MOL       0.0579
     46 H9         41.9816   16.6770   29.9091 H           1 MOL       0.0579
     47 H10        43.6968   13.3870   29.7863 H           1 MOL       0.0579
     48 H11        42.6092   12.8609   28.4983 H           1 MOL       0.0579
     49 H12        40.7037   12.7575   30.0302 H           1 MOL       0.0536
     50 H13        42.0493   11.8640   30.7076 H           1 MOL       0.0536
     51 H14        44.4082   16.6248   37.3573 H           1 MOL       0.0652
     52 H15        44.9877   18.1779   39.0596 H           1 MOL       0.0569
     53 H16        44.5095   19.7941   40.6900 H           1 MOL       0.0406
     54 H17        42.9632   19.5502   41.4850 H           1 MOL       0.0406
     55 H18        43.1312   20.7963   40.2348 H           1 MOL       0.0406
     56 H19        40.3401   17.6263   37.8070 H           1 MOL       0.0658
     57 H20        41.0728   18.7262   41.7075 H           1 MOL       0.0538
     58 H21        39.2607   19.8826   42.8070 H           1 MOL       0.0598
     59 H22        39.6805   20.1050   37.9503 H           1 MOL       0.0568
     60 H23        37.4471   21.7865   43.3035 H           1 MOL       0.0460
     61 H24        35.8035   20.3768   44.3243 H           1 MOL       0.0340
     62 H25        36.5949   19.3538   43.1378 H           1 MOL       0.0340
     63 H26        34.0958   19.0963   43.1537 H           1 MOL       0.0815
     64 H27        34.7092   19.5955   41.5749 H           1 MOL       0.0815
     65 H28        33.4371   21.2964   43.6231 H           1 MOL       0.2013
     66 H29        32.8105   20.8313   42.1642 H           1 MOL       0.2013
     67 H30        33.5254   23.1250   42.1628 H           1 MOL       0.0815
     68 H31        34.3501   22.1412   40.9559 H           1 MOL       0.0815
     69 H32        36.0106   23.5623   42.1817 H           1 MOL       0.0340
     70 H33        35.4072   22.9621   43.7216 H           1 MOL       0.0340
@<TRIPOS>BOND
     1     1     2   2
     2     2     3  am
     3     2    16   1
     4     3     4   1
     5     4     5  ar
     6     4     9  ar
     7     5     6  ar
     8     6     7  ar
     9     6    10   1
    10     7     8  ar
    11     8     9  ar
    12    10    11   1
    13    10    15   1
    14    11    12   1
    15    12    13   1
    16    13    14   1
    17    14    15   1
    18    16    17  ar
    19    16    22  ar
    20    17    18  ar
    21    18    19  ar
    22    19    20   1
    23    19    21  ar
    24    21    22  ar
    25    21    23   1
    26    23    24  ar
    27    23    29  ar
    28    24    25  ar
    29    25    26  ar
    30    26    27  ar
    31    26    30   1
    32    27    28   1
    33    27    29  ar
    34    28    31   1
    35    30    31   2
    36    30    32   1
    37    32    33   1
    38    32    37   1
    39    33    34   1
    40    34    35   1
    41    35    36   1
    42    36    37   1
    43     3    38   1
    44     5    39   1
    45     7    40   1
    46     8    41   1
    47     9    42   1
    48    11    43   1
    49    11    44   1
    50    12    45   1
    51    12    46   1
    52    14    47   1
    53    14    48   1
    54    15    49   1
    55    15    50   1
    56    17    51   1
    57    18    52   1
    58    20    53   1
    59    20    54   1
    60    20    55   1
    61    22    56   1
    62    24    57   1
    63    25    58   1
    64    29    59   1
    65    32    60   1
    66    33    61   1
    67    33    62   1
    68    34    63   1
    69    34    64   1
    70    35    65   1
    71    35    66   1
    72    36    67   1
    73    36    68   1
    74    37    69   1
    75    37    70   1
@<TRIPOS>SUBSTRUCTURE
     1  MOL      2

