@<TRIPOS>MOLECULE
3e93_ligand_056
    70    75
SMALL
GAST_HUCK
****
This file was generated by PARSER (from files_GN.cpp)

@<TRIPOS>ATOM
      1 O25        42.8904   28.1442   30.6168 O.2         1 MOL      -0.3760
      2 C22        42.7664   29.3491   30.7296 C.2         1 MOL       0.2274
      3 N24        43.6613   30.2211   30.2916 N.am        1 MOL      -0.2370
      4 C26        44.8745   30.0278   29.6664 C.ar        1 MOL       0.0536
      5 C27        45.6106   28.8142   29.6173 C.ar        1 MOL      -0.0255
      6 C29        46.8251   28.7081   28.8952 C.ar        1 MOL       0.0259
      7 C32        47.3288   29.8638   28.2563 C.ar        1 MOL      -0.0595
      8 C30        46.6555   31.0902   28.3612 C.ar        1 MOL      -0.0865
      9 C28        45.4431   31.1658   29.0540 C.ar        1 MOL      -0.0544
     10 N31        47.5175   27.5312   28.8450 N.pl3       1 MOL      -0.3075
     11 C33        47.8516   26.8190   30.0702 C.3         1 MOL       0.0499
     12 C35        47.7480   25.2991   29.8499 C.3         1 MOL       0.0673
     13 O37        48.5030   24.8993   28.6869 O.3         1 MOL      -0.3759
     14 C36        48.0992   25.5740   27.4793 C.3         1 MOL       0.0673
     15 C34        48.2024   27.1094   27.6376 C.3         1 MOL       0.0499
     16 C19        41.6573   29.8037   31.4275 C.ar        1 MOL       0.0497
     17 C23        40.7804   30.7765   30.8988 C.ar        1 MOL      -0.0479
     18 C20        39.6408   31.1818   31.6142 C.ar        1 MOL      -0.0536
     19 C18        39.3503   30.6484   32.8948 C.ar        1 MOL      -0.0326
     20 C21        38.0836   31.0611   33.5627 C.3         1 MOL      -0.0276
     21 C15        40.2576   29.7099   33.4788 C.ar        1 MOL      -0.0123
     22 C17        41.3712   29.2835   32.7134 C.ar        1 MOL      -0.0399
     23 C12        40.1181   29.1963   34.8039 C.ar        1 MOL      -0.0269
     24 C9         40.0695   30.0902   35.9023 C.ar        1 MOL      -0.0647
     25 C4         39.9021   29.6172   37.2164 C.ar        1 MOL      -0.0614
     26 C1         39.8449   28.2331   37.4578 C.ar        1 MOL       0.0282
     27 C3         39.9576   27.3477   36.3843 C.ar        1 MOL       0.1528
     28 O8         39.9023   26.0882   36.8611 O.3         1 MOL      -0.1790
     29 C7         40.0824   27.8052   35.0612 C.ar        1 MOL      -0.0179
     30 C2         39.6842   27.4237   38.5892 C.2         1 MOL       0.0534
     31 N6         39.7390   26.1455   38.1503 N.2         1 MOL      -0.1500
     32 C5         39.4003   27.7220   40.0292 C.3         1 MOL       0.0120
     33 C10        39.0846   29.2071   40.3698 C.3         1 MOL       0.0001
     34 C13        38.6993   29.3675   41.8598 C.3         1 MOL      -0.0317
     35 N16        39.7792   28.8485   42.7260 N.4         1 MOL       0.2272
     36 C14        40.1602   27.4443   42.4587 C.3         1 MOL      -0.0317
     37 C11        40.5324   27.2084   40.9716 C.3         1 MOL       0.0001
     38 H1         43.4256   31.1465   30.4234 H           1 MOL       0.2248
     39 H2         45.2374   27.9755   30.0797 H           1 MOL       0.0391
     40 H3         48.2196   29.8381   27.7638 H           1 MOL       0.0393
     41 H4         47.0610   31.9250   27.9367 H           1 MOL       0.0546
     42 H5         44.9569   32.0638   29.0956 H           1 MOL       0.0398
     43 H6         47.2252   27.1014   30.9165 H           1 MOL       0.0536
     44 H7         48.8776   27.0767   30.3298 H           1 MOL       0.0536
     45 H8         46.7070   24.9907   29.7488 H           1 MOL       0.0579
     46 H9         48.1672   24.7904   30.7174 H           1 MOL       0.0579
     47 H10        47.0732   25.2890   27.2167 H           1 MOL       0.0579
     48 H11        48.7539   25.2517   26.6634 H           1 MOL       0.0579
     49 H12        49.2545   27.4069   27.6867 H           1 MOL       0.0536
     50 H13        47.7576   27.5675   26.7454 H           1 MOL       0.0536
     51 H14        40.9471   31.1771   29.9735 H           1 MOL       0.0652
     52 H15        39.0042   31.8604   31.1777 H           1 MOL       0.0569
     53 H16        37.4317   31.6407   32.9107 H           1 MOL       0.0406
     54 H17        38.2840   31.6731   34.4365 H           1 MOL       0.0406
     55 H18        37.5331   30.1778   33.8694 H           1 MOL       0.0406
     56 H19        42.0269   28.6121   33.1265 H           1 MOL       0.0658
     57 H20        40.1760   31.0935   35.7576 H           1 MOL       0.0538
     58 H21        39.8432   30.2858   37.9697 H           1 MOL       0.0598
     59 H22        40.1494   27.1169   34.3053 H           1 MOL       0.0568
     60 H23        38.4963   27.1474   40.2589 H           1 MOL       0.0460
     61 H24        38.2583   29.5723   39.7459 H           1 MOL       0.0340
     62 H25        39.9660   29.8224   40.1891 H           1 MOL       0.0340
     63 H26        37.7626   28.8458   42.0719 H           1 MOL       0.0815
     64 H27        38.5475   30.4287   42.0816 H           1 MOL       0.0815
     65 H28        39.4775   28.9336   43.7034 H           1 MOL       0.2013
     66 H29        40.6016   29.4398   42.5962 H           1 MOL       0.2013
     67 H30        39.3275   26.7898   42.7407 H           1 MOL       0.0815
     68 H31        41.0074   27.1918   43.0943 H           1 MOL       0.0815
     69 H32        41.4649   27.7313   40.7457 H           1 MOL       0.0340
     70 H33        40.6995   26.1422   40.8181 H           1 MOL       0.0340
@<TRIPOS>BOND
     1     1     2   2
     2     2     3  am
     3     2    16   1
     4     3     4   1
     5     4     5  ar
     6     4     9  ar
     7     5     6  ar
     8     6     7  ar
     9     6    10   1
    10     7     8  ar
    11     8     9  ar
    12    10    11   1
    13    10    15   1
    14    11    12   1
    15    12    13   1
    16    13    14   1
    17    14    15   1
    18    16    17  ar
    19    16    22  ar
    20    17    18  ar
    21    18    19  ar
    22    19    20   1
    23    19    21  ar
    24    21    22  ar
    25    21    23   1
    26    23    24  ar
    27    23    29  ar
    28    24    25  ar
    29    25    26  ar
    30    26    27  ar
    31    26    30   1
    32    27    28   1
    33    27    29  ar
    34    28    31   1
    35    30    31   2
    36    30    32   1
    37    32    33   1
    38    32    37   1
    39    33    34   1
    40    34    35   1
    41    35    36   1
    42    36    37   1
    43     3    38   1
    44     5    39   1
    45     7    40   1
    46     8    41   1
    47     9    42   1
    48    11    43   1
    49    11    44   1
    50    12    45   1
    51    12    46   1
    52    14    47   1
    53    14    48   1
    54    15    49   1
    55    15    50   1
    56    17    51   1
    57    18    52   1
    58    20    53   1
    59    20    54   1
    60    20    55   1
    61    22    56   1
    62    24    57   1
    63    25    58   1
    64    29    59   1
    65    32    60   1
    66    33    61   1
    67    33    62   1
    68    34    63   1
    69    34    64   1
    70    35    65   1
    71    35    66   1
    72    36    67   1
    73    36    68   1
    74    37    69   1
    75    37    70   1
@<TRIPOS>SUBSTRUCTURE
     1  MOL      2

