@<TRIPOS>MOLECULE
3e93_ligand_013
    70    75
SMALL
GAST_HUCK
****
This file was generated by PARSER (from files_GN.cpp)

@<TRIPOS>ATOM
      1 O25        40.1012   27.8616   37.1568 O.2         1 MOL      -0.3760
      2 C22        38.9907   27.8751   36.6382 C.2         1 MOL       0.2274
      3 N24        38.6833   28.7764   35.7078 N.am        1 MOL      -0.2370
      4 C26        39.4343   29.8109   35.2270 C.ar        1 MOL       0.0536
      5 C27        39.2629   30.1755   33.8726 C.ar        1 MOL      -0.0255
      6 C29        40.1311   31.1087   33.2507 C.ar        1 MOL       0.0259
      7 C32        41.0916   31.7740   34.0539 C.ar        1 MOL      -0.0595
      8 C30        41.1811   31.5173   35.4273 C.ar        1 MOL      -0.0865
      9 C28        40.3622   30.5373   36.0107 C.ar        1 MOL      -0.0544
     10 N31        40.0910   31.3217   31.9067 N.pl3       1 MOL      -0.3075
     11 C33        41.1970   30.9509   31.0427 C.3         1 MOL       0.0499
     12 C35        41.7104   32.2051   30.2853 C.3         1 MOL       0.0673
     13 O37        40.6199   32.8616   29.5941 O.3         1 MOL      -0.3759
     14 C36        39.5349   33.2306   30.4849 C.3         1 MOL       0.0673
     15 C34        38.9773   31.9925   31.2639 C.3         1 MOL       0.0499
     16 C19        38.0768   26.8964   37.0020 C.ar        1 MOL       0.0497
     17 C23        36.7572   27.2566   37.3461 C.ar        1 MOL      -0.0479
     18 C20        35.8437   26.2977   37.7917 C.ar        1 MOL      -0.0536
     19 C18        36.1982   24.9360   37.8809 C.ar        1 MOL      -0.0326
     20 C21        35.2103   23.9744   38.4283 C.3         1 MOL      -0.0276
     21 C15        37.5031   24.5382   37.4753 C.ar        1 MOL      -0.0123
     22 C17        38.4346   25.5263   37.0776 C.ar        1 MOL      -0.0399
     23 C12        37.9021   23.1694   37.4453 C.ar        1 MOL      -0.0269
     24 C9         37.2025   22.2154   36.6573 C.ar        1 MOL      -0.0647
     25 C4         37.5381   20.8408   36.6890 C.ar        1 MOL      -0.0614
     26 C1         38.6122   20.4070   37.4964 C.ar        1 MOL       0.0282
     27 C3         39.3412   21.3554   38.2120 C.ar        1 MOL       0.1528
     28 O8         40.3482   20.7305   38.8557 O.3         1 MOL      -0.1790
     29 C7         38.9988   22.7162   38.2139 C.ar        1 MOL      -0.0179
     30 C2         39.2223   19.1789   37.7888 C.2         1 MOL       0.0534
     31 N6         40.2749   19.4566   38.5943 N.2         1 MOL      -0.1500
     32 C5         38.9377   17.7613   37.3814 C.3         1 MOL       0.0120
     33 C10        37.5240   17.4911   36.7745 C.3         1 MOL       0.0001
     34 C13        37.2839   15.9853   36.4681 C.3         1 MOL      -0.0317
     35 N16        37.5473   15.1337   37.6516 N.4         1 MOL       0.2272
     36 C14        38.9064   15.3003   38.2096 C.3         1 MOL      -0.0317
     37 C11        39.1798   16.7830   38.5807 C.3         1 MOL       0.0001
     38 H1         37.8866   28.5793   35.1969 H           1 MOL       0.2248
     39 H2         38.5773   29.6697   33.3125 H           1 MOL       0.0391
     40 H3         41.7139   32.4831   33.6605 H           1 MOL       0.0393
     41 H4         41.8374   32.0473   36.0053 H           1 MOL       0.0546
     42 H5         40.4551   30.3644   37.0138 H           1 MOL       0.0398
     43 H6         40.8423   30.2098   30.3131 H           1 MOL       0.0536
     44 H7         42.0335   30.4948   31.5776 H           1 MOL       0.0536
     45 H8         42.4538   31.8947   29.5485 H           1 MOL       0.0579
     46 H9         42.1971   32.9039   30.9814 H           1 MOL       0.0579
     47 H10        38.7451   33.6704   29.8740 H           1 MOL       0.0579
     48 H11        39.8885   34.0038   31.1852 H           1 MOL       0.0579
     49 H12        38.2280   32.3448   31.9802 H           1 MOL       0.0536
     50 H13        38.4750   31.3127   30.5643 H           1 MOL       0.0536
     51 H14        36.4645   28.2307   37.3302 H           1 MOL       0.0652
     52 H15        34.9042   26.6024   38.0428 H           1 MOL       0.0569
     53 H16        34.3357   24.4754   38.8498 H           1 MOL       0.0406
     54 H17        35.6593   23.3690   39.2252 H           1 MOL       0.0406
     55 H18        34.8723   23.3157   37.6258 H           1 MOL       0.0406
     56 H19        39.3855   25.2366   36.8245 H           1 MOL       0.0658
     57 H20        36.4414   22.5187   36.0527 H           1 MOL       0.0538
     58 H21        37.0061   20.1863   36.1067 H           1 MOL       0.0598
     59 H22        39.5350   23.3517   38.8018 H           1 MOL       0.0568
     60 H23        39.6745   17.4998   36.6177 H           1 MOL       0.0460
     61 H24        37.4042   18.0422   35.8420 H           1 MOL       0.0340
     62 H25        36.7552   17.8236   37.4796 H           1 MOL       0.0340
     63 H26        37.9254   15.6612   35.6399 H           1 MOL       0.0815
     64 H27        36.2420   15.8346   36.1687 H           1 MOL       0.0815
     65 H28        37.4183   14.1530   37.3828 H           1 MOL       0.2013
     66 H29        36.8675   15.3595   38.3828 H           1 MOL       0.2013
     67 H30        39.6518   14.9596   37.4830 H           1 MOL       0.0815
     68 H31        38.9833   14.6747   39.0994 H           1 MOL       0.0815
     69 H32        38.5315   17.0633   39.4194 H           1 MOL       0.0340
     70 H33        40.2227   16.8603   38.9196 H           1 MOL       0.0340
@<TRIPOS>BOND
     1     1     2   2
     2     2     3  am
     3     2    16   1
     4     3     4   1
     5     4     5  ar
     6     4     9  ar
     7     5     6  ar
     8     6     7  ar
     9     6    10   1
    10     7     8  ar
    11     8     9  ar
    12    10    11   1
    13    10    15   1
    14    11    12   1
    15    12    13   1
    16    13    14   1
    17    14    15   1
    18    16    17  ar
    19    16    22  ar
    20    17    18  ar
    21    18    19  ar
    22    19    20   1
    23    19    21  ar
    24    21    22  ar
    25    21    23   1
    26    23    24  ar
    27    23    29  ar
    28    24    25  ar
    29    25    26  ar
    30    26    27  ar
    31    26    30   1
    32    27    28   1
    33    27    29  ar
    34    28    31   1
    35    30    31   2
    36    30    32   1
    37    32    33   1
    38    32    37   1
    39    33    34   1
    40    34    35   1
    41    35    36   1
    42    36    37   1
    43     3    38   1
    44     5    39   1
    45     7    40   1
    46     8    41   1
    47     9    42   1
    48    11    43   1
    49    11    44   1
    50    12    45   1
    51    12    46   1
    52    14    47   1
    53    14    48   1
    54    15    49   1
    55    15    50   1
    56    17    51   1
    57    18    52   1
    58    20    53   1
    59    20    54   1
    60    20    55   1
    61    22    56   1
    62    24    57   1
    63    25    58   1
    64    29    59   1
    65    32    60   1
    66    33    61   1
    67    33    62   1
    68    34    63   1
    69    34    64   1
    70    35    65   1
    71    35    66   1
    72    36    67   1
    73    36    68   1
    74    37    69   1
    75    37    70   1
@<TRIPOS>SUBSTRUCTURE
     1  MOL      2

