@<TRIPOS>MOLECULE
3e93_ligand_025
    70    75
SMALL
GAST_HUCK
****
This file was generated by PARSER (from files_GN.cpp)

@<TRIPOS>ATOM
      1 O25        39.9936   22.3443   39.2597 O.2         1 MOL      -0.3760
      2 C22        38.9871   22.1969   38.5622 C.2         1 MOL       0.2274
      3 N24        38.6092   21.0331   38.0382 N.am        1 MOL      -0.2370
      4 C26        39.2814   19.8331   37.9705 C.ar        1 MOL       0.0536
      5 C27        40.6692   19.6574   38.1971 C.ar        1 MOL      -0.0255
      6 C29        41.3052   18.4056   38.0140 C.ar        1 MOL       0.0259
      7 C32        40.5352   17.3099   37.5701 C.ar        1 MOL      -0.0595
      8 C30        39.1544   17.4555   37.3466 C.ar        1 MOL      -0.0865
      9 C28        38.5384   18.7119   37.5430 C.ar        1 MOL      -0.0544
     10 N31        42.6287   18.2691   38.2752 N.pl3       1 MOL      -0.3075
     11 C33        43.5847   18.2809   37.1945 C.3         1 MOL       0.0499
     12 C35        44.5081   19.5202   37.3529 C.3         1 MOL       0.0673
     13 O37        45.0728   19.5693   38.6836 O.3         1 MOL      -0.3759
     14 C36        44.0796   19.6182   39.7279 C.3         1 MOL       0.0673
     15 C34        43.1204   18.4128   39.6266 C.3         1 MOL       0.0499
     16 C19        38.2037   23.3179   38.3536 C.ar        1 MOL       0.0497
     17 C23        36.8069   23.3036   38.5828 C.ar        1 MOL      -0.0479
     18 C20        36.0362   24.4622   38.3768 C.ar        1 MOL      -0.0536
     19 C18        36.6182   25.6649   37.8987 C.ar        1 MOL      -0.0326
     20 C21        35.7602   26.8589   37.7038 C.3         1 MOL      -0.0276
     21 C15        38.0098   25.6560   37.5751 C.ar        1 MOL      -0.0123
     22 C17        38.7859   24.5059   37.8602 C.ar        1 MOL      -0.0399
     23 C12        38.6585   26.7088   36.8683 C.ar        1 MOL      -0.0269
     24 C9         39.2730   26.4191   35.6171 C.ar        1 MOL      -0.0647
     25 C4         39.9167   27.4295   34.8724 C.ar        1 MOL      -0.0614
     26 C1         39.9359   28.7412   35.3796 C.ar        1 MOL       0.0282
     27 C3         39.3512   29.0299   36.6042 C.ar        1 MOL       0.1528
     28 O8         39.4927   30.3560   36.8125 O.3         1 MOL      -0.1790
     29 C7         38.7273   28.0329   37.3771 C.ar        1 MOL      -0.0179
     30 C2         40.4359   29.9429   34.8858 C.2         1 MOL       0.0534
     31 N6         40.1236   30.8878   35.7942 N.2         1 MOL      -0.1500
     32 C5         41.1421   30.1589   33.5836 C.3         1 MOL       0.0120
     33 C10        42.3890   31.0930   33.6962 C.3         1 MOL       0.0001
     34 C13        42.0258   32.6021   33.7453 C.3         1 MOL      -0.0317
     35 N16        41.1048   32.9701   32.6469 N.4         1 MOL       0.2272
     36 C14        39.8571   32.1748   32.6025 C.3         1 MOL      -0.0317
     37 C11        40.1693   30.6621   32.4723 C.3         1 MOL       0.0001
     38 H1         37.7385   21.0410   37.5901 H           1 MOL       0.2248
     39 H2         41.2601   20.4485   38.4489 H           1 MOL       0.0391
     40 H3         40.9676   16.3936   37.4407 H           1 MOL       0.0393
     41 H4         38.5863   16.6592   37.0523 H           1 MOL       0.0546
     42 H5         37.5362   18.8048   37.3560 H           1 MOL       0.0398
     43 H6         43.1059   18.3226   36.2099 H           1 MOL       0.0536
     44 H7         44.1872   17.3741   37.2424 H           1 MOL       0.0536
     45 H8         43.9451   20.4370   37.1511 H           1 MOL       0.0579
     46 H9         45.3260   19.4646   36.6346 H           1 MOL       0.0579
     47 H10        43.5174   20.5547   39.6681 H           1 MOL       0.0579
     48 H11        44.5869   19.5983   40.6918 H           1 MOL       0.0579
     49 H12        43.6718   17.5009   39.8810 H           1 MOL       0.0536
     50 H13        42.3080   18.5325   40.3574 H           1 MOL       0.0536
     51 H14        36.3444   22.4535   38.9244 H           1 MOL       0.0652
     52 H15        35.0299   24.4156   38.5792 H           1 MOL       0.0569
     53 H16        34.7243   26.6609   37.9935 H           1 MOL       0.0406
     54 H17        35.7801   27.1837   36.6590 H           1 MOL       0.0406
     55 H18        36.1362   27.6725   38.3259 H           1 MOL       0.0406
     56 H19        39.7956   24.5063   37.6541 H           1 MOL       0.0658
     57 H20        39.2264   25.4730   35.2166 H           1 MOL       0.0538
     58 H21        40.3483   27.2112   33.9730 H           1 MOL       0.0598
     59 H22        38.3163   28.2690   38.2813 H           1 MOL       0.0568
     60 H23        41.5242   29.1870   33.2450 H           1 MOL       0.0460
     61 H24        43.0343   30.9328   32.8255 H           1 MOL       0.0340
     62 H25        42.9775   30.8257   34.5765 H           1 MOL       0.0340
     63 H26        42.9360   33.1982   33.6420 H           1 MOL       0.0815
     64 H27        41.5776   32.8578   34.7068 H           1 MOL       0.0815
     65 H28        41.6014   32.8381   31.7646 H           1 MOL       0.2013
     66 H29        40.8565   33.9597   32.7386 H           1 MOL       0.2013
     67 H30        39.2729   32.5021   31.7401 H           1 MOL       0.0815
     68 H31        39.2590   32.3612   33.4982 H           1 MOL       0.0815
     69 H32        39.2337   30.0955   32.4987 H           1 MOL       0.0340
     70 H33        40.6273   30.4899   31.4908 H           1 MOL       0.0340
@<TRIPOS>BOND
     1     1     2   2
     2     2     3  am
     3     2    16   1
     4     3     4   1
     5     4     5  ar
     6     4     9  ar
     7     5     6  ar
     8     6     7  ar
     9     6    10   1
    10     7     8  ar
    11     8     9  ar
    12    10    11   1
    13    10    15   1
    14    11    12   1
    15    12    13   1
    16    13    14   1
    17    14    15   1
    18    16    17  ar
    19    16    22  ar
    20    17    18  ar
    21    18    19  ar
    22    19    20   1
    23    19    21  ar
    24    21    22  ar
    25    21    23   1
    26    23    24  ar
    27    23    29  ar
    28    24    25  ar
    29    25    26  ar
    30    26    27  ar
    31    26    30   1
    32    27    28   1
    33    27    29  ar
    34    28    31   1
    35    30    31   2
    36    30    32   1
    37    32    33   1
    38    32    37   1
    39    33    34   1
    40    34    35   1
    41    35    36   1
    42    36    37   1
    43     3    38   1
    44     5    39   1
    45     7    40   1
    46     8    41   1
    47     9    42   1
    48    11    43   1
    49    11    44   1
    50    12    45   1
    51    12    46   1
    52    14    47   1
    53    14    48   1
    54    15    49   1
    55    15    50   1
    56    17    51   1
    57    18    52   1
    58    20    53   1
    59    20    54   1
    60    20    55   1
    61    22    56   1
    62    24    57   1
    63    25    58   1
    64    29    59   1
    65    32    60   1
    66    33    61   1
    67    33    62   1
    68    34    63   1
    69    34    64   1
    70    35    65   1
    71    35    66   1
    72    36    67   1
    73    36    68   1
    74    37    69   1
    75    37    70   1
@<TRIPOS>SUBSTRUCTURE
     1  MOL      2

