@<TRIPOS>MOLECULE
3e93_ligand_016
    70    75
SMALL
GAST_HUCK
****
This file was generated by PARSER (from files_GN.cpp)

@<TRIPOS>ATOM
      1 O25        39.5995   29.6144   34.3142 O.2         1 MOL      -0.3760
      2 C22        40.2800   28.6079   34.1412 C.2         1 MOL       0.2274
      3 N24        39.9996   27.4969   34.8280 N.am        1 MOL      -0.2370
      4 C26        39.0167   27.2528   35.7473 C.ar        1 MOL       0.0536
      5 C27        38.4977   25.9397   35.8117 C.ar        1 MOL      -0.0255
      6 C29        37.4778   25.5660   36.7275 C.ar        1 MOL       0.0259
      7 C32        37.0045   26.5777   37.6056 C.ar        1 MOL      -0.0595
      8 C30        37.5153   27.8859   37.5626 C.ar        1 MOL      -0.0865
      9 C28        38.5237   28.2194   36.6499 C.ar        1 MOL      -0.0544
     10 N31        36.9578   24.2924   36.7602 N.pl3       1 MOL      -0.3075
     11 C33        36.9064   23.4261   35.5936 C.3         1 MOL       0.0499
     12 C35        37.6387   22.0961   35.8934 C.3         1 MOL       0.0673
     13 O37        37.1077   21.4921   37.0910 O.3         1 MOL      -0.3759
     14 C36        37.1577   22.3546   38.2453 C.3         1 MOL       0.0673
     15 C34        36.4314   23.7005   37.9781 C.3         1 MOL       0.0499
     16 C19        41.3028   28.6377   33.1804 C.ar        1 MOL       0.0497
     17 C23        41.8648   27.4442   32.6684 C.ar        1 MOL      -0.0479
     18 C20        42.9275   27.4752   31.7633 C.ar        1 MOL      -0.0536
     19 C18        43.5146   28.6943   31.3568 C.ar        1 MOL      -0.0326
     20 C21        44.7537   28.5887   30.5318 C.3         1 MOL      -0.0276
     21 C15        42.9365   29.9329   31.7988 C.ar        1 MOL      -0.0123
     22 C17        41.8192   29.8614   32.6800 C.ar        1 MOL      -0.0399
     23 C12        43.4885   31.2299   31.4749 C.ar        1 MOL      -0.0269
     24 C9         44.1389   31.4808   30.2359 C.ar        1 MOL      -0.0647
     25 C4         44.8669   32.6642   30.0041 C.ar        1 MOL      -0.0614
     26 C1         44.8679   33.6842   30.9726 C.ar        1 MOL       0.0282
     27 C3         44.1012   33.5137   32.1221 C.ar        1 MOL       0.1528
     28 O8         44.2120   34.6262   32.8740 O.3         1 MOL      -0.1790
     29 C7         43.4358   32.3086   32.4035 C.ar        1 MOL      -0.0179
     30 C2         45.4969   34.9223   31.1116 C.2         1 MOL       0.0534
     31 N6         45.0367   35.4414   32.2711 N.2         1 MOL      -0.1500
     32 C5         46.6864   35.5177   30.4380 C.3         1 MOL       0.0120
     33 C10        46.7619   35.3900   28.8882 C.3         1 MOL       0.0001
     34 C13        48.0596   36.0392   28.3445 C.3         1 MOL      -0.0317
     35 N16        49.2457   35.4165   28.9787 N.4         1 MOL       0.2272
     36 C14        49.2683   35.5411   30.4536 C.3         1 MOL      -0.0317
     37 C11        47.9837   34.9465   31.0915 C.3         1 MOL       0.0001
     38 H1         40.5241   26.7159   34.5979 H           1 MOL       0.2248
     39 H2         38.9033   25.2316   35.1938 H           1 MOL       0.0391
     40 H3         36.2405   26.3893   38.2563 H           1 MOL       0.0393
     41 H4         37.1477   28.6015   38.1918 H           1 MOL       0.0546
     42 H5         38.9074   29.1661   36.6686 H           1 MOL       0.0398
     43 H6         37.3155   23.8731   34.6847 H           1 MOL       0.0536
     44 H7         35.8576   23.1988   35.3787 H           1 MOL       0.0536
     45 H8         38.7130   22.2684   35.9970 H           1 MOL       0.0579
     46 H9         37.4847   21.4030   35.0650 H           1 MOL       0.0579
     47 H10        38.2003   22.5409   38.5198 H           1 MOL       0.0579
     48 H11        36.6769   21.8415   39.0790 H           1 MOL       0.0579
     49 H12        35.3584   23.5238   37.8646 H           1 MOL       0.0536
     50 H13        36.5784   24.3235   38.8633 H           1 MOL       0.0536
     51 H14        41.5067   26.5253   32.9387 H           1 MOL       0.0652
     52 H15        43.2933   26.5782   31.4281 H           1 MOL       0.0569
     53 H16        45.1245   27.5544   30.4509 H           1 MOL       0.0406
     54 H17        45.5489   29.1967   30.9890 H           1 MOL       0.0406
     55 H18        44.5289   28.9549   29.5156 H           1 MOL       0.0406
     56 H19        41.3830   30.7333   32.9889 H           1 MOL       0.0658
     57 H20        44.1405   30.7661   29.4949 H           1 MOL       0.0538
     58 H21        45.3546   32.7692   29.1181 H           1 MOL       0.0598
     59 H22        42.9711   32.2181   33.3078 H           1 MOL       0.0568
     60 H23        46.6522   36.5895   30.6577 H           1 MOL       0.0460
     61 H24        45.8868   35.8451   28.4190 H           1 MOL       0.0340
     62 H25        46.8008   34.3450   28.5908 H           1 MOL       0.0340
     63 H26        48.0554   37.1173   28.5270 H           1 MOL       0.0815
     64 H27        48.1195   35.8772   27.2675 H           1 MOL       0.0815
     65 H28        50.0929   35.8481   28.5963 H           1 MOL       0.2013
     66 H29        49.2514   34.4202   28.7378 H           1 MOL       0.2013
     67 H30        49.3770   36.5946   30.7251 H           1 MOL       0.0815
     68 H31        50.1419   35.0046   30.8322 H           1 MOL       0.0815
     69 H32        48.0039   33.8595   30.9672 H           1 MOL       0.0340
     70 H33        47.9933   35.1698   32.1625 H           1 MOL       0.0340
@<TRIPOS>BOND
     1     1     2   2
     2     2     3  am
     3     2    16   1
     4     3     4   1
     5     4     5  ar
     6     4     9  ar
     7     5     6  ar
     8     6     7  ar
     9     6    10   1
    10     7     8  ar
    11     8     9  ar
    12    10    11   1
    13    10    15   1
    14    11    12   1
    15    12    13   1
    16    13    14   1
    17    14    15   1
    18    16    17  ar
    19    16    22  ar
    20    17    18  ar
    21    18    19  ar
    22    19    20   1
    23    19    21  ar
    24    21    22  ar
    25    21    23   1
    26    23    24  ar
    27    23    29  ar
    28    24    25  ar
    29    25    26  ar
    30    26    27  ar
    31    26    30   1
    32    27    28   1
    33    27    29  ar
    34    28    31   1
    35    30    31   2
    36    30    32   1
    37    32    33   1
    38    32    37   1
    39    33    34   1
    40    34    35   1
    41    35    36   1
    42    36    37   1
    43     3    38   1
    44     5    39   1
    45     7    40   1
    46     8    41   1
    47     9    42   1
    48    11    43   1
    49    11    44   1
    50    12    45   1
    51    12    46   1
    52    14    47   1
    53    14    48   1
    54    15    49   1
    55    15    50   1
    56    17    51   1
    57    18    52   1
    58    20    53   1
    59    20    54   1
    60    20    55   1
    61    22    56   1
    62    24    57   1
    63    25    58   1
    64    29    59   1
    65    32    60   1
    66    33    61   1
    67    33    62   1
    68    34    63   1
    69    34    64   1
    70    35    65   1
    71    35    66   1
    72    36    67   1
    73    36    68   1
    74    37    69   1
    75    37    70   1
@<TRIPOS>SUBSTRUCTURE
     1  MOL      2

