@<TRIPOS>MOLECULE
3e93_ligand_001
    70    75
SMALL
GAST_HUCK
****
This file was generated by PARSER (from files_GN.cpp)

@<TRIPOS>ATOM
      1 O25        38.7920   29.2905   37.9498 O.2         1 MOL      -0.3760
      2 C22        38.6717   28.5041   37.0149 C.2         1 MOL       0.2274
      3 N24        38.9188   28.8229   35.7544 N.am        1 MOL      -0.2370
      4 C26        39.4794   29.9628   35.2330 C.ar        1 MOL       0.0536
      5 C27        39.1743   30.2939   33.8921 C.ar        1 MOL      -0.0255
      6 C29        39.7447   31.4272   33.2695 C.ar        1 MOL       0.0259
      7 C32        40.6392   32.2422   33.9907 C.ar        1 MOL      -0.0595
      8 C30        40.9597   31.9261   35.3202 C.ar        1 MOL      -0.0865
      9 C28        40.3943   30.7918   35.9314 C.ar        1 MOL      -0.0544
     10 N31        39.4424   31.7222   31.9740 N.pl3       1 MOL      -0.3075
     11 C33        38.2494   32.4600   31.6487 C.3         1 MOL       0.0499
     12 C35        38.6584   33.7306   30.8580 C.3         1 MOL       0.0673
     13 O37        39.4679   33.3708   29.7163 O.3         1 MOL      -0.3759
     14 C36        40.6757   32.6671   30.0702 C.3         1 MOL       0.0673
     15 C34        40.3682   31.4055   30.9159 C.3         1 MOL       0.0499
     16 C19        38.1331   27.2703   37.3006 C.ar        1 MOL       0.0497
     17 C23        36.7514   27.1394   37.5570 C.ar        1 MOL      -0.0479
     18 C20        36.2086   25.8932   37.9014 C.ar        1 MOL      -0.0536
     19 C18        37.0277   24.7418   38.0117 C.ar        1 MOL      -0.0326
     20 C21        36.4117   23.4444   38.3918 C.3         1 MOL      -0.0276
     21 C15        38.4214   24.8694   37.7550 C.ar        1 MOL      -0.0123
     22 C17        38.9587   26.1295   37.3943 C.ar        1 MOL      -0.0399
     23 C12        39.3084   23.7674   37.8656 C.ar        1 MOL      -0.0269
     24 C9         39.9599   23.4895   39.0926 C.ar        1 MOL      -0.0647
     25 C4         40.8233   22.3792   39.2188 C.ar        1 MOL      -0.0614
     26 C1         41.0327   21.5515   38.0983 C.ar        1 MOL       0.0282
     27 C3         40.4011   21.8324   36.8895 C.ar        1 MOL       0.1528
     28 O8         40.7869   20.9070   35.9889 O.3         1 MOL      -0.1790
     29 C7         39.5346   22.9277   36.7471 C.ar        1 MOL      -0.0179
     30 C2         41.8049   20.4186   37.8633 C.2         1 MOL       0.0534
     31 N6         41.6161   20.0786   36.5708 N.2         1 MOL      -0.1500
     32 C5         42.7147   19.7112   38.8133 C.3         1 MOL       0.0120
     33 C10        44.2133   20.0329   38.5340 C.3         1 MOL       0.0001
     34 C13        44.7888   19.2418   37.3325 C.3         1 MOL      -0.0317
     35 N16        44.5598   17.7892   37.4986 N.4         1 MOL       0.2272
     36 C14        43.1386   17.4105   37.6730 C.3         1 MOL      -0.0317
     37 C11        42.4870   18.1686   38.8619 C.3         1 MOL       0.0001
     38 H1         38.6119   28.1769   35.0976 H           1 MOL       0.2248
     39 H2         38.5344   29.6986   33.3561 H           1 MOL       0.0391
     40 H3         41.0499   33.0691   33.5566 H           1 MOL       0.0393
     41 H4         41.6069   32.5169   35.8401 H           1 MOL       0.0546
     42 H5         40.6805   30.5608   36.8834 H           1 MOL       0.0398
     43 H6         37.6771   32.7476   32.5330 H           1 MOL       0.0536
     44 H7         37.6091   31.8390   31.0236 H           1 MOL       0.0536
     45 H8         39.2153   34.4208   31.5003 H           1 MOL       0.0579
     46 H9         37.7680   34.2516   30.5063 H           1 MOL       0.0579
     47 H10        41.3493   33.3368   30.6128 H           1 MOL       0.0579
     48 H11        41.1715   32.3653   29.1483 H           1 MOL       0.0579
     49 H12        39.8960   30.6582   30.2762 H           1 MOL       0.0536
     50 H13        41.3024   30.9740   31.2904 H           1 MOL       0.0536
     51 H14        36.1319   27.9532   37.5076 H           1 MOL       0.0652
     52 H15        35.2036   25.8344   38.0887 H           1 MOL       0.0569
     53 H16        35.3353   23.5240   38.5545 H           1 MOL       0.0406
     54 H17        36.8652   23.0744   39.3124 H           1 MOL       0.0406
     55 H18        36.5782   22.7171   37.5962 H           1 MOL       0.0406
     56 H19        39.9675   26.2196   37.2220 H           1 MOL       0.0658
     57 H20        39.8064   24.0907   39.9080 H           1 MOL       0.0538
     58 H21        41.2900   22.1873   40.1036 H           1 MOL       0.0598
     59 H22        39.0806   23.1040   35.8480 H           1 MOL       0.0568
     60 H23        42.4940   20.0934   39.8163 H           1 MOL       0.0460
     61 H24        44.7968   19.7655   39.4211 H           1 MOL       0.0340
     62 H25        44.3464   21.1057   38.3666 H           1 MOL       0.0340
     63 H26        45.8634   19.4163   37.2692 H           1 MOL       0.0815
     64 H27        44.3387   19.5835   36.3979 H           1 MOL       0.0815
     65 H28        45.0823   17.4729   38.3197 H           1 MOL       0.2013
     66 H29        44.9303   17.3039   36.6781 H           1 MOL       0.2013
     67 H30        43.0908   16.3364   37.8602 H           1 MOL       0.0815
     68 H31        42.5948   17.6056   36.7467 H           1 MOL       0.0815
     69 H32        41.4182   17.9425   38.8983 H           1 MOL       0.0340
     70 H33        42.9325   17.7862   39.7850 H           1 MOL       0.0340
@<TRIPOS>BOND
     1     1     2   2
     2     2     3  am
     3     2    16   1
     4     3     4   1
     5     4     5  ar
     6     4     9  ar
     7     5     6  ar
     8     6     7  ar
     9     6    10   1
    10     7     8  ar
    11     8     9  ar
    12    10    11   1
    13    10    15   1
    14    11    12   1
    15    12    13   1
    16    13    14   1
    17    14    15   1
    18    16    17  ar
    19    16    22  ar
    20    17    18  ar
    21    18    19  ar
    22    19    20   1
    23    19    21  ar
    24    21    22  ar
    25    21    23   1
    26    23    24  ar
    27    23    29  ar
    28    24    25  ar
    29    25    26  ar
    30    26    27  ar
    31    26    30   1
    32    27    28   1
    33    27    29  ar
    34    28    31   1
    35    30    31   2
    36    30    32   1
    37    32    33   1
    38    32    37   1
    39    33    34   1
    40    34    35   1
    41    35    36   1
    42    36    37   1
    43     3    38   1
    44     5    39   1
    45     7    40   1
    46     8    41   1
    47     9    42   1
    48    11    43   1
    49    11    44   1
    50    12    45   1
    51    12    46   1
    52    14    47   1
    53    14    48   1
    54    15    49   1
    55    15    50   1
    56    17    51   1
    57    18    52   1
    58    20    53   1
    59    20    54   1
    60    20    55   1
    61    22    56   1
    62    24    57   1
    63    25    58   1
    64    29    59   1
    65    32    60   1
    66    33    61   1
    67    33    62   1
    68    34    63   1
    69    34    64   1
    70    35    65   1
    71    35    66   1
    72    36    67   1
    73    36    68   1
    74    37    69   1
    75    37    70   1
@<TRIPOS>SUBSTRUCTURE
     1  MOL      2

