@<TRIPOS>MOLECULE
3e93_ligand_088
    70    75
SMALL
GAST_HUCK
****
This file was generated by PARSER (from files_GN.cpp)

@<TRIPOS>ATOM
      1 O25        33.9543   19.3670   43.0275 O.2         1 MOL      -0.3760
      2 C22        34.8831   19.2214   43.8195 C.2         1 MOL       0.2274
      3 N24        34.6500   19.0822   45.1231 N.am        1 MOL      -0.2370
      4 C26        33.4535   19.0124   45.7956 C.ar        1 MOL       0.0536
      5 C27        33.4308   19.4239   47.1474 C.ar        1 MOL      -0.0255
      6 C29        32.2457   19.4104   47.9328 C.ar        1 MOL       0.0259
      7 C32        31.0585   18.9688   47.2964 C.ar        1 MOL      -0.0595
      8 C30        31.0593   18.5255   45.9667 C.ar        1 MOL      -0.0865
      9 C28        32.2521   18.5308   45.2292 C.ar        1 MOL      -0.0544
     10 N31        32.2511   19.7820   49.2589 N.pl3       1 MOL      -0.3075
     11 C33        31.0965   20.3661   49.9241 C.3         1 MOL       0.0499
     12 C35        30.6483   19.4365   51.0758 C.3         1 MOL       0.0673
     13 O37        31.7509   19.2044   51.9785 O.3         1 MOL      -0.3759
     14 C36        32.9178   18.6482   51.3372 C.3         1 MOL       0.0673
     15 C34        33.3823   19.5147   50.1344 C.3         1 MOL       0.0499
     16 C19        36.1820   19.3442   43.3312 C.ar        1 MOL       0.0497
     17 C23        37.2513   18.5809   43.8577 C.ar        1 MOL      -0.0479
     18 C20        38.5450   18.6810   43.3172 C.ar        1 MOL      -0.0536
     19 C18        38.8270   19.5687   42.2542 C.ar        1 MOL      -0.0326
     20 C21        40.1960   19.6293   41.6808 C.3         1 MOL      -0.0276
     21 C15        37.7764   20.3862   41.7557 C.ar        1 MOL      -0.0123
     22 C17        36.4717   20.2495   42.2822 C.ar        1 MOL      -0.0399
     23 C12        37.9892   21.3742   40.7676 C.ar        1 MOL      -0.0269
     24 C9         38.2927   22.7053   41.1583 C.ar        1 MOL      -0.0647
     25 C4         38.4741   23.7136   40.1889 C.ar        1 MOL      -0.0614
     26 C1         38.3539   23.3730   38.8314 C.ar        1 MOL       0.0282
     27 C3         38.0521   22.0739   38.4448 C.ar        1 MOL       0.1528
     28 O8         37.9738   22.0408   37.0976 O.3         1 MOL      -0.1790
     29 C7         37.8646   21.0552   39.3945 C.ar        1 MOL      -0.0179
     30 C2         38.4606   24.1018   37.6495 C.2         1 MOL       0.0534
     31 N6         38.2105   23.2447   36.6378 N.2         1 MOL      -0.1500
     32 C5         38.7232   25.5567   37.5230 C.3         1 MOL       0.0120
     33 C10        37.3896   26.3538   37.5963 C.3         1 MOL       0.0001
     34 C13        37.6362   27.8748   37.4351 C.3         1 MOL      -0.0317
     35 N16        38.4203   28.1800   36.2152 N.4         1 MOL       0.2272
     36 C14        39.7117   27.4594   36.1233 C.3         1 MOL      -0.0317
     37 C11        39.5088   25.9263   36.2288 C.3         1 MOL       0.0001
     38 H1         35.4388   19.1399   45.6920 H           1 MOL       0.2248
     39 H2         34.2944   19.7978   47.5466 H           1 MOL       0.0391
     40 H3         30.1808   18.8871   47.8095 H           1 MOL       0.0393
     41 H4         30.1956   18.1790   45.5413 H           1 MOL       0.0546
     42 H5         32.2336   18.1565   44.2812 H           1 MOL       0.0398
     43 H6         30.2526   20.5662   49.2642 H           1 MOL       0.0536
     44 H7         31.3802   21.3341   50.3390 H           1 MOL       0.0536
     45 H8         30.2803   18.4876   50.6737 H           1 MOL       0.0579
     46 H9         29.8360   19.9068   51.6331 H           1 MOL       0.0579
     47 H10        32.7037   17.6289   51.0022 H           1 MOL       0.0579
     48 H11        33.7187   18.5971   52.0765 H           1 MOL       0.0579
     49 H12        33.7938   20.4575   50.5012 H           1 MOL       0.0536
     50 H13        34.1909   18.9668   49.6471 H           1 MOL       0.0536
     51 H14        37.0911   17.9189   44.6226 H           1 MOL       0.0652
     52 H15        39.2855   18.0922   43.7080 H           1 MOL       0.0569
     53 H16        40.8786   18.9208   42.1521 H           1 MOL       0.0406
     54 H17        40.6088   20.6314   41.8090 H           1 MOL       0.0406
     55 H18        40.1613   19.3939   40.6148 H           1 MOL       0.0406
     56 H19        35.7232   20.8453   41.9114 H           1 MOL       0.0658
     57 H20        38.3751   22.9491   42.1486 H           1 MOL       0.0538
     58 H21        38.6803   24.6724   40.4756 H           1 MOL       0.0598
     59 H22        37.6333   20.1080   39.0864 H           1 MOL       0.0568
     60 H23        39.3465   25.8573   38.3714 H           1 MOL       0.0460
     61 H24        36.8969   26.1769   38.5569 H           1 MOL       0.0340
     62 H25        36.7133   26.0199   36.8035 H           1 MOL       0.0340
     63 H26        38.1627   28.2614   38.3121 H           1 MOL       0.0815
     64 H27        36.6729   28.3821   37.3708 H           1 MOL       0.0815
     65 H28        38.6056   29.1851   36.1910 H           1 MOL       0.2013
     66 H29        37.8650   27.9376   35.3913 H           1 MOL       0.2013
     67 H30        40.3851   27.8035   36.9137 H           1 MOL       0.0815
     68 H31        40.1712   27.6975   35.1617 H           1 MOL       0.0815
     69 H32        38.9579   25.5866   35.3465 H           1 MOL       0.0340
     70 H33        40.4857   25.4342   36.2332 H           1 MOL       0.0340
@<TRIPOS>BOND
     1     1     2   2
     2     2     3  am
     3     2    16   1
     4     3     4   1
     5     4     5  ar
     6     4     9  ar
     7     5     6  ar
     8     6     7  ar
     9     6    10   1
    10     7     8  ar
    11     8     9  ar
    12    10    11   1
    13    10    15   1
    14    11    12   1
    15    12    13   1
    16    13    14   1
    17    14    15   1
    18    16    17  ar
    19    16    22  ar
    20    17    18  ar
    21    18    19  ar
    22    19    20   1
    23    19    21  ar
    24    21    22  ar
    25    21    23   1
    26    23    24  ar
    27    23    29  ar
    28    24    25  ar
    29    25    26  ar
    30    26    27  ar
    31    26    30   1
    32    27    28   1
    33    27    29  ar
    34    28    31   1
    35    30    31   2
    36    30    32   1
    37    32    33   1
    38    32    37   1
    39    33    34   1
    40    34    35   1
    41    35    36   1
    42    36    37   1
    43     3    38   1
    44     5    39   1
    45     7    40   1
    46     8    41   1
    47     9    42   1
    48    11    43   1
    49    11    44   1
    50    12    45   1
    51    12    46   1
    52    14    47   1
    53    14    48   1
    54    15    49   1
    55    15    50   1
    56    17    51   1
    57    18    52   1
    58    20    53   1
    59    20    54   1
    60    20    55   1
    61    22    56   1
    62    24    57   1
    63    25    58   1
    64    29    59   1
    65    32    60   1
    66    33    61   1
    67    33    62   1
    68    34    63   1
    69    34    64   1
    70    35    65   1
    71    35    66   1
    72    36    67   1
    73    36    68   1
    74    37    69   1
    75    37    70   1
@<TRIPOS>SUBSTRUCTURE
     1  MOL      2

