@<TRIPOS>MOLECULE
3e93_ligand_028
    70    75
SMALL
GAST_HUCK
****
This file was generated by PARSER (from files_GN.cpp)

@<TRIPOS>ATOM
      1 O25        40.0543   20.8172   39.6419 O.2         1 MOL      -0.3760
      2 C22        41.1730   21.3165   39.6770 C.2         1 MOL       0.2274
      3 N24        41.4077   22.5412   40.1380 N.am        1 MOL      -0.2370
      4 C26        40.5525   23.3907   40.7869 C.ar        1 MOL       0.0536
      5 C27        40.7092   24.7839   40.5900 C.ar        1 MOL      -0.0255
      6 C29        39.8781   25.7525   41.2235 C.ar        1 MOL       0.0259
      7 C32        38.8917   25.2396   42.1070 C.ar        1 MOL      -0.0595
      8 C30        38.7256   23.8602   42.3263 C.ar        1 MOL      -0.0865
      9 C28        39.5546   22.9410   41.6728 C.ar        1 MOL      -0.0544
     10 N31        40.0160   27.1128   40.9825 N.pl3       1 MOL      -0.3075
     11 C33        38.9316   28.0718   41.1468 C.3         1 MOL       0.0499
     12 C35        39.3448   29.1733   42.1545 C.3         1 MOL       0.0673
     13 O37        40.5679   29.8022   41.7206 O.3         1 MOL      -0.3759
     14 C36        41.6507   28.8690   41.5301 C.3         1 MOL       0.0673
     15 C34        41.2577   27.7354   40.5434 C.3         1 MOL       0.0499
     16 C19        42.2048   20.6733   39.0259 C.ar        1 MOL       0.0497
     17 C23        43.3675   20.3190   39.7406 C.ar        1 MOL      -0.0479
     18 C20        44.4626   19.7630   39.0665 C.ar        1 MOL      -0.0536
     19 C18        44.4508   19.5999   37.6589 C.ar        1 MOL      -0.0326
     20 C21        45.7207   19.1989   36.9949 C.3         1 MOL      -0.0276
     21 C15        43.2522   19.8937   36.9318 C.ar        1 MOL      -0.0123
     22 C17        42.1379   20.4117   37.6384 C.ar        1 MOL      -0.0399
     23 C12        43.1329   19.7096   35.5149 C.ar        1 MOL      -0.0269
     24 C9         43.4366   18.4504   34.9283 C.ar        1 MOL      -0.0647
     25 C4         43.4230   18.2646   33.5319 C.ar        1 MOL      -0.0614
     26 C1         43.0040   19.3173   32.7012 C.ar        1 MOL       0.0282
     27 C3         42.6267   20.5276   33.2756 C.ar        1 MOL       0.1528
     28 O8         42.2276   21.3495   32.2858 O.3         1 MOL      -0.1790
     29 C7         42.7002   20.7566   34.6618 C.ar        1 MOL      -0.0179
     30 C2         42.8396   19.4639   31.3231 C.2         1 MOL       0.0534
     31 N6         42.3569   20.7145   31.1496 N.2         1 MOL      -0.1500
     32 C5         43.1383   18.5784   30.1508 C.3         1 MOL       0.0120
     33 C10        42.6297   17.0942   30.2204 C.3         1 MOL       0.0001
     34 C13        43.6825   15.9942   30.5575 C.3         1 MOL      -0.0317
     35 N16        45.0476   16.2779   30.0591 N.4         1 MOL       0.2272
     36 C14        45.5429   17.6383   30.3450 C.3         1 MOL      -0.0317
     37 C11        44.6199   18.6836   29.6832 C.3         1 MOL       0.0001
     38 H1         42.2624   22.9248   39.8806 H           1 MOL       0.2248
     39 H2         41.4070   25.0742   39.9033 H           1 MOL       0.0391
     40 H3         38.2998   25.8593   42.6565 H           1 MOL       0.0393
     41 H4         38.0132   23.5247   42.9785 H           1 MOL       0.0546
     42 H5         39.4407   21.9438   41.8716 H           1 MOL       0.0398
     43 H6         37.9804   27.6447   41.4581 H           1 MOL       0.0536
     44 H7         38.7378   28.5476   40.1806 H           1 MOL       0.0536
     45 H8         39.4701   28.7491   43.1556 H           1 MOL       0.0579
     46 H9         38.5663   29.9383   42.2060 H           1 MOL       0.0579
     47 H10        41.9393   28.4431   42.4951 H           1 MOL       0.0579
     48 H11        42.5089   29.4155   41.1349 H           1 MOL       0.0579
     49 H12        41.1196   28.1585   39.5436 H           1 MOL       0.0536
     50 H13        42.1082   27.0589   40.4925 H           1 MOL       0.0536
     51 H14        43.4361   20.4708   40.7534 H           1 MOL       0.0652
     52 H15        45.2924   19.5115   39.6141 H           1 MOL       0.0569
     53 H16        46.5469   19.0939   37.7077 H           1 MOL       0.0406
     54 H17        45.9938   19.9651   36.2620 H           1 MOL       0.0406
     55 H18        45.5968   18.2336   36.4946 H           1 MOL       0.0406
     56 H19        41.2747   20.6382   37.1315 H           1 MOL       0.0658
     57 H20        43.6873   17.6470   35.5219 H           1 MOL       0.0538
     58 H21        43.6970   17.3638   33.1451 H           1 MOL       0.0598
     59 H22        42.4482   21.6716   35.0319 H           1 MOL       0.0568
     60 H23        42.5664   19.0313   29.3350 H           1 MOL       0.0460
     61 H24        42.2209   16.8383   29.2360 H           1 MOL       0.0340
     62 H25        41.8011   17.0173   30.9304 H           1 MOL       0.0340
     63 H26        43.3654   15.0483   30.1066 H           1 MOL       0.0815
     64 H27        43.7312   15.8296   31.6380 H           1 MOL       0.0815
     65 H28        45.0608   16.1403   29.0429 H           1 MOL       0.2013
     66 H29        45.6969   15.6034   30.4788 H           1 MOL       0.2013
     67 H30        46.5486   17.7405   29.9270 H           1 MOL       0.0815
     68 H31        45.6071   17.8051   31.4236 H           1 MOL       0.0815
     69 H32        45.0213   19.6824   29.8650 H           1 MOL       0.0340
     70 H33        44.6571   18.5155   28.6003 H           1 MOL       0.0340
@<TRIPOS>BOND
     1     1     2   2
     2     2     3  am
     3     2    16   1
     4     3     4   1
     5     4     5  ar
     6     4     9  ar
     7     5     6  ar
     8     6     7  ar
     9     6    10   1
    10     7     8  ar
    11     8     9  ar
    12    10    11   1
    13    10    15   1
    14    11    12   1
    15    12    13   1
    16    13    14   1
    17    14    15   1
    18    16    17  ar
    19    16    22  ar
    20    17    18  ar
    21    18    19  ar
    22    19    20   1
    23    19    21  ar
    24    21    22  ar
    25    21    23   1
    26    23    24  ar
    27    23    29  ar
    28    24    25  ar
    29    25    26  ar
    30    26    27  ar
    31    26    30   1
    32    27    28   1
    33    27    29  ar
    34    28    31   1
    35    30    31   2
    36    30    32   1
    37    32    33   1
    38    32    37   1
    39    33    34   1
    40    34    35   1
    41    35    36   1
    42    36    37   1
    43     3    38   1
    44     5    39   1
    45     7    40   1
    46     8    41   1
    47     9    42   1
    48    11    43   1
    49    11    44   1
    50    12    45   1
    51    12    46   1
    52    14    47   1
    53    14    48   1
    54    15    49   1
    55    15    50   1
    56    17    51   1
    57    18    52   1
    58    20    53   1
    59    20    54   1
    60    20    55   1
    61    22    56   1
    62    24    57   1
    63    25    58   1
    64    29    59   1
    65    32    60   1
    66    33    61   1
    67    33    62   1
    68    34    63   1
    69    34    64   1
    70    35    65   1
    71    35    66   1
    72    36    67   1
    73    36    68   1
    74    37    69   1
    75    37    70   1
@<TRIPOS>SUBSTRUCTURE
     1  MOL      2

