@<TRIPOS>MOLECULE
3e93_ligand_066
    70    75
SMALL
GAST_HUCK
****
This file was generated by PARSER (from files_GN.cpp)

@<TRIPOS>ATOM
      1 O25        42.9083   27.8615   30.9167 O.2         1 MOL      -0.3760
      2 C22        42.7648   29.0711   31.0380 C.2         1 MOL       0.2274
      3 N24        43.6147   29.9514   30.5156 N.am        1 MOL      -0.2370
      4 C26        44.8004   29.7425   29.8595 C.ar        1 MOL       0.0536
      5 C27        45.6085   28.5849   29.9935 C.ar        1 MOL      -0.0255
      6 C29        46.7825   28.3762   29.2218 C.ar        1 MOL       0.0259
      7 C32        47.1497   29.4140   28.3274 C.ar        1 MOL      -0.0595
      8 C30        46.4129   30.6074   28.2396 C.ar        1 MOL      -0.0865
      9 C28        45.2520   30.7739   29.0105 C.ar        1 MOL      -0.0544
     10 N31        47.5265   27.2204   29.3267 N.pl3       1 MOL      -0.3075
     11 C33        48.1777   26.6070   28.1807 C.3         1 MOL       0.0499
     12 C35        47.7659   25.1123   28.0699 C.3         1 MOL       0.0673
     13 O37        47.9375   24.4159   29.3215 O.3         1 MOL      -0.3759
     14 C36        47.2409   25.0369   30.4190 C.3         1 MOL       0.0673
     15 C34        47.7120   26.5034   30.5774 C.3         1 MOL       0.0499
     16 C19        41.6721   29.5128   31.7631 C.ar        1 MOL       0.0497
     17 C23        40.8418   30.5513   31.2897 C.ar        1 MOL      -0.0479
     18 C20        39.7270   30.9671   32.0378 C.ar        1 MOL      -0.0536
     19 C18        39.4398   30.3933   33.2997 C.ar        1 MOL      -0.0326
     20 C21        38.2213   30.8280   34.0296 C.3         1 MOL      -0.0276
     21 C15        40.3024   29.3840   33.8170 C.ar        1 MOL      -0.0123
     22 C17        41.3813   28.9360   33.0196 C.ar        1 MOL      -0.0399
     23 C12        40.1499   28.8117   35.1157 C.ar        1 MOL      -0.0269
     24 C9         39.8787   27.4260   35.2754 C.ar        1 MOL      -0.0647
     25 C4         39.7715   26.8434   36.5581 C.ar        1 MOL      -0.0614
     26 C1         39.9658   27.6514   37.6943 C.ar        1 MOL       0.0282
     27 C3         40.2430   29.0054   37.5406 C.ar        1 MOL       0.1528
     28 O8         40.4082   29.5457   38.7644 O.3         1 MOL      -0.1790
     29 C7         40.3436   29.6055   36.2743 C.ar        1 MOL      -0.0179
     30 C2         39.9547   27.4213   39.0718 C.2         1 MOL       0.0534
     31 N6         40.2310   28.6067   39.6573 N.2         1 MOL      -0.1500
     32 C5         39.6746   26.1479   39.8021 C.3         1 MOL       0.0120
     33 C10        39.4254   26.3618   41.3313 C.3         1 MOL       0.0001
     34 C13        39.2400   25.0236   42.0938 C.3         1 MOL      -0.0317
     35 N16        40.3897   24.1245   41.8592 N.4         1 MOL       0.2272
     36 C14        40.6007   23.8099   40.4281 C.3         1 MOL      -0.0317
     37 C11        40.8173   25.1058   39.6010 C.3         1 MOL       0.0001
     38 H1         43.3429   30.8800   30.5901 H           1 MOL       0.2248
     39 H2         45.3070   27.8546   30.6335 H           1 MOL       0.0391
     40 H3         48.0010   29.3395   27.7689 H           1 MOL       0.0393
     41 H4         46.7183   31.3528   27.6092 H           1 MOL       0.0546
     42 H5         44.7206   31.6450   28.9243 H           1 MOL       0.0398
     43 H6         49.2617   26.6751   28.3033 H           1 MOL       0.0536
     44 H7         47.9149   27.0808   27.2316 H           1 MOL       0.0536
     45 H8         48.3874   24.6186   27.3205 H           1 MOL       0.0579
     46 H9         46.7237   25.0334   27.7461 H           1 MOL       0.0579
     47 H10        47.4601   24.4798   31.3321 H           1 MOL       0.0579
     48 H11        46.1619   25.0002   30.2481 H           1 MOL       0.0579
     49 H12        47.2154   26.9625   31.4316 H           1 MOL       0.0536
     50 H13        48.7791   26.4981   30.8198 H           1 MOL       0.0536
     51 H14        41.0168   30.9881   30.3783 H           1 MOL       0.0652
     52 H15        39.1265   31.7003   31.6492 H           1 MOL       0.0569
     53 H16        37.5664   31.4508   33.4164 H           1 MOL       0.0406
     54 H17        38.5013   31.3994   34.9146 H           1 MOL       0.0406
     55 H18        37.6520   29.9494   34.3372 H           1 MOL       0.0406
     56 H19        41.9957   28.2012   33.3777 H           1 MOL       0.0658
     57 H20        39.7643   26.8269   34.4543 H           1 MOL       0.0538
     58 H21        39.5705   25.8467   36.6545 H           1 MOL       0.0598
     59 H22        40.5888   30.5963   36.2061 H           1 MOL       0.0568
     60 H23        38.7537   25.7359   39.3775 H           1 MOL       0.0460
     61 H24        38.5331   26.9774   41.4768 H           1 MOL       0.0340
     62 H25        40.2763   26.8888   41.7747 H           1 MOL       0.0340
     63 H26        38.3133   24.5358   41.7791 H           1 MOL       0.0815
     64 H27        39.1726   25.2198   43.1654 H           1 MOL       0.0815
     65 H28        40.2506   23.2604   42.3935 H           1 MOL       0.2013
     66 H29        41.2323   24.5867   42.2075 H           1 MOL       0.2013
     67 H30        39.7423   23.2548   40.0375 H           1 MOL       0.0815
     68 H31        41.4840   23.1717   40.3399 H           1 MOL       0.0815
     69 H32        41.7714   25.5492   39.9030 H           1 MOL       0.0340
     70 H33        40.8839   24.8267   38.5477 H           1 MOL       0.0340
@<TRIPOS>BOND
     1     1     2   2
     2     2     3  am
     3     2    16   1
     4     3     4   1
     5     4     5  ar
     6     4     9  ar
     7     5     6  ar
     8     6     7  ar
     9     6    10   1
    10     7     8  ar
    11     8     9  ar
    12    10    11   1
    13    10    15   1
    14    11    12   1
    15    12    13   1
    16    13    14   1
    17    14    15   1
    18    16    17  ar
    19    16    22  ar
    20    17    18  ar
    21    18    19  ar
    22    19    20   1
    23    19    21  ar
    24    21    22  ar
    25    21    23   1
    26    23    24  ar
    27    23    29  ar
    28    24    25  ar
    29    25    26  ar
    30    26    27  ar
    31    26    30   1
    32    27    28   1
    33    27    29  ar
    34    28    31   1
    35    30    31   2
    36    30    32   1
    37    32    33   1
    38    32    37   1
    39    33    34   1
    40    34    35   1
    41    35    36   1
    42    36    37   1
    43     3    38   1
    44     5    39   1
    45     7    40   1
    46     8    41   1
    47     9    42   1
    48    11    43   1
    49    11    44   1
    50    12    45   1
    51    12    46   1
    52    14    47   1
    53    14    48   1
    54    15    49   1
    55    15    50   1
    56    17    51   1
    57    18    52   1
    58    20    53   1
    59    20    54   1
    60    20    55   1
    61    22    56   1
    62    24    57   1
    63    25    58   1
    64    29    59   1
    65    32    60   1
    66    33    61   1
    67    33    62   1
    68    34    63   1
    69    34    64   1
    70    35    65   1
    71    35    66   1
    72    36    67   1
    73    36    68   1
    74    37    69   1
    75    37    70   1
@<TRIPOS>SUBSTRUCTURE
     1  MOL      2

