@<TRIPOS>MOLECULE
3e93_ligand_047
    70    75
SMALL
GAST_HUCK
****
This file was generated by PARSER (from files_GN.cpp)

@<TRIPOS>ATOM
      1 O25        37.6364   17.7556   43.9684 O.2         1 MOL      -0.3760
      2 C22        37.5023   16.6264   43.5065 C.2         1 MOL       0.2274
      3 N24        37.4581   15.5927   44.3514 N.am        1 MOL      -0.2370
      4 C26        37.4264   15.6238   45.7209 C.ar        1 MOL       0.0536
      5 C27        36.6737   16.5667   46.4665 C.ar        1 MOL      -0.0255
      6 C29        36.7124   16.6508   47.8858 C.ar        1 MOL       0.0259
      7 C32        37.5167   15.6720   48.5368 C.ar        1 MOL      -0.0595
      8 C30        38.2046   14.6709   47.8217 C.ar        1 MOL      -0.0865
      9 C28        38.1507   14.6430   46.4221 C.ar        1 MOL      -0.0544
     10 N31        36.0372   17.6374   48.5927 N.pl3       1 MOL      -0.3075
     11 C33        35.7572   17.5609   50.0257 C.3         1 MOL       0.0499
     12 C35        34.2443   17.7920   50.2948 C.3         1 MOL       0.0673
     13 O37        33.7531   18.9807   49.6421 O.3         1 MOL      -0.3759
     14 C36        34.0353   19.0172   48.2280 C.3         1 MOL       0.0673
     15 C34        35.5592   18.8784   47.9919 C.3         1 MOL       0.0499
     16 C19        37.4312   16.4749   42.1086 C.ar        1 MOL       0.0497
     17 C23        37.0419   15.2485   41.5140 C.ar        1 MOL      -0.0479
     18 C20        36.8949   15.1278   40.1239 C.ar        1 MOL      -0.0536
     19 C18        37.1260   16.2203   39.2598 C.ar        1 MOL      -0.0326
     20 C21        36.8508   16.0479   37.8070 C.3         1 MOL      -0.0276
     21 C15        37.5503   17.4636   39.8166 C.ar        1 MOL      -0.0123
     22 C17        37.7050   17.5523   41.2293 C.ar        1 MOL      -0.0399
     23 C12        37.7873   18.6393   39.0335 C.ar        1 MOL      -0.0269
     24 C9         38.7163   18.6433   37.9528 C.ar        1 MOL      -0.0647
     25 C4         38.9588   19.8074   37.1901 C.ar        1 MOL      -0.0614
     26 C1         38.3225   21.0082   37.5623 C.ar        1 MOL       0.0282
     27 C3         37.4265   21.0192   38.6228 C.ar        1 MOL       0.1528
     28 O8         36.9707   22.2818   38.7738 O.3         1 MOL      -0.1790
     29 C7         37.1281   19.8580   39.3502 C.ar        1 MOL      -0.0179
     30 C2         38.3848   22.3191   37.0918 C.2         1 MOL       0.0534
     31 N6         37.5390   23.0364   37.8689 N.2         1 MOL      -0.1500
     32 C5         39.1482   22.8528   35.9258 C.3         1 MOL       0.0120
     33 C10        40.6896   22.6297   36.0445 C.3         1 MOL       0.0001
     34 C13        41.4072   23.1587   34.7748 C.3         1 MOL      -0.0317
     35 N16        41.1166   24.5910   34.5503 N.4         1 MOL       0.2272
     36 C14        39.6734   24.9162   34.4526 C.3         1 MOL      -0.0317
     37 C11        38.8706   24.3725   35.6669 C.3         1 MOL       0.0001
     38 H1         37.5471   14.7114   43.9586 H           1 MOL       0.2248
     39 H2         36.0454   17.1733   45.9378 H           1 MOL       0.0391
     40 H3         37.6637   15.6923   49.5450 H           1 MOL       0.0393
     41 H4         38.7683   13.9797   48.3240 H           1 MOL       0.0546
     42 H5         38.6732   13.9242   45.9162 H           1 MOL       0.0398
     43 H6         36.3371   18.3329   50.5426 H           1 MOL       0.0536
     44 H7         35.9988   16.6024   50.4870 H           1 MOL       0.0536
     45 H8         34.0851   17.9043   51.3706 H           1 MOL       0.0579
     46 H9         33.6757   16.9201   49.9582 H           1 MOL       0.0579
     47 H10        33.6894   19.9729   47.8306 H           1 MOL       0.0579
     48 H11        33.5004   18.2166   47.7068 H           1 MOL       0.0579
     49 H12        35.7614   18.9966   46.9255 H           1 MOL       0.0536
     50 H13        36.0660   19.7195   48.4815 H           1 MOL       0.0536
     51 H14        36.8293   14.4291   42.0853 H           1 MOL       0.0652
     52 H15        36.5924   14.2233   39.7506 H           1 MOL       0.0569
     53 H16        36.3910   15.0833   37.5835 H           1 MOL       0.0406
     54 H17        37.7787   16.1102   37.2372 H           1 MOL       0.0406
     55 H18        36.1698   16.8297   37.4654 H           1 MOL       0.0406
     56 H19        38.0245   18.4431   41.6187 H           1 MOL       0.0658
     57 H20        39.2459   17.8020   37.7236 H           1 MOL       0.0538
     58 H21        39.6208   19.7970   36.4050 H           1 MOL       0.0598
     59 H22        36.4537   19.9093   40.1180 H           1 MOL       0.0568
     60 H23        38.7886   22.2981   35.0529 H           1 MOL       0.0460
     61 H24        40.9213   21.5559   36.1504 H           1 MOL       0.0340
     62 H25        41.0775   23.1578   36.9273 H           1 MOL       0.0340
     63 H26        41.0893   22.5803   33.9020 H           1 MOL       0.0815
     64 H27        42.4886   23.0387   34.8882 H           1 MOL       0.0815
     65 H28        41.5802   24.8598   33.6790 H           1 MOL       0.2013
     66 H29        41.5222   25.1284   35.3212 H           1 MOL       0.2013
     67 H30        39.2628   24.5052   33.5238 H           1 MOL       0.0815
     68 H31        39.5671   26.0011   34.4140 H           1 MOL       0.0815
     69 H32        39.1521   24.9483   36.5553 H           1 MOL       0.0340
     70 H33        37.8030   24.5318   35.4826 H           1 MOL       0.0340
@<TRIPOS>BOND
     1     1     2   2
     2     2     3  am
     3     2    16   1
     4     3     4   1
     5     4     5  ar
     6     4     9  ar
     7     5     6  ar
     8     6     7  ar
     9     6    10   1
    10     7     8  ar
    11     8     9  ar
    12    10    11   1
    13    10    15   1
    14    11    12   1
    15    12    13   1
    16    13    14   1
    17    14    15   1
    18    16    17  ar
    19    16    22  ar
    20    17    18  ar
    21    18    19  ar
    22    19    20   1
    23    19    21  ar
    24    21    22  ar
    25    21    23   1
    26    23    24  ar
    27    23    29  ar
    28    24    25  ar
    29    25    26  ar
    30    26    27  ar
    31    26    30   1
    32    27    28   1
    33    27    29  ar
    34    28    31   1
    35    30    31   2
    36    30    32   1
    37    32    33   1
    38    32    37   1
    39    33    34   1
    40    34    35   1
    41    35    36   1
    42    36    37   1
    43     3    38   1
    44     5    39   1
    45     7    40   1
    46     8    41   1
    47     9    42   1
    48    11    43   1
    49    11    44   1
    50    12    45   1
    51    12    46   1
    52    14    47   1
    53    14    48   1
    54    15    49   1
    55    15    50   1
    56    17    51   1
    57    18    52   1
    58    20    53   1
    59    20    54   1
    60    20    55   1
    61    22    56   1
    62    24    57   1
    63    25    58   1
    64    29    59   1
    65    32    60   1
    66    33    61   1
    67    33    62   1
    68    34    63   1
    69    34    64   1
    70    35    65   1
    71    35    66   1
    72    36    67   1
    73    36    68   1
    74    37    69   1
    75    37    70   1
@<TRIPOS>SUBSTRUCTURE
     1  MOL      2

