@<TRIPOS>MOLECULE
3e93_ligand_080
    70    75
SMALL
GAST_HUCK
****
This file was generated by PARSER (from files_GN.cpp)

@<TRIPOS>ATOM
      1 O25        34.8287   24.2220   38.3213 O.2         1 MOL      -0.3760
      2 C22        35.9916   24.0430   38.6520 C.2         1 MOL       0.2274
      3 N24        36.3284   23.3477   39.7296 N.am        1 MOL      -0.2370
      4 C26        35.4992   22.7201   40.6300 C.ar        1 MOL       0.0536
      5 C27        35.9857   21.5717   41.2898 C.ar        1 MOL      -0.0255
      6 C29        35.1471   20.8066   42.1266 C.ar        1 MOL       0.0259
      7 C32        33.8219   21.2296   42.3579 C.ar        1 MOL      -0.0595
      8 C30        33.3588   22.4277   41.7980 C.ar        1 MOL      -0.0865
      9 C28        34.1898   23.1714   40.9431 C.ar        1 MOL      -0.0544
     10 N31        35.6096   19.6574   42.6867 N.pl3       1 MOL      -0.3075
     11 C33        36.3992   19.7045   43.8940 C.3         1 MOL       0.0499
     12 C35        35.6246   18.9717   45.0197 C.3         1 MOL       0.0673
     13 O37        35.2435   17.6449   44.5942 O.3         1 MOL      -0.3759
     14 C36        34.4299   17.6298   43.3999 C.3         1 MOL       0.0673
     15 C34        35.1298   18.3728   42.2344 C.3         1 MOL       0.0499
     16 C19        36.9517   24.6079   37.8234 C.ar        1 MOL       0.0497
     17 C23        36.8664   25.9786   37.4969 C.ar        1 MOL      -0.0479
     18 C20        37.8043   26.5739   36.6435 C.ar        1 MOL      -0.0536
     19 C18        38.8346   25.8098   36.0497 C.ar        1 MOL      -0.0326
     20 C21        39.8294   26.5030   35.1857 C.3         1 MOL      -0.0276
     21 C15        38.9039   24.4115   36.3262 C.ar        1 MOL      -0.0123
     22 C17        37.9916   23.8402   37.2446 C.ar        1 MOL      -0.0399
     23 C12        39.8470   23.5662   35.6641 C.ar        1 MOL      -0.0269
     24 C9         39.7678   23.3849   34.2571 C.ar        1 MOL      -0.0647
     25 C4         40.7409   22.6300   33.5670 C.ar        1 MOL      -0.0614
     26 C1         41.7750   22.0258   34.3013 C.ar        1 MOL       0.0282
     27 C3         41.8369   22.1635   35.6840 C.ar        1 MOL       0.1528
     28 O8         42.9025   21.4615   36.1258 O.3         1 MOL      -0.1790
     29 C7         40.8830   22.9239   36.3857 C.ar        1 MOL      -0.0179
     30 C2         42.8427   21.2070   33.9444 C.2         1 MOL       0.0534
     31 N6         43.4847   20.9059   35.0926 N.2         1 MOL      -0.1500
     32 C5         43.1604   20.6980   32.5827 C.3         1 MOL       0.0120
     33 C10        42.3305   19.4223   32.2480 C.3         1 MOL       0.0001
     34 C13        42.9106   18.1566   32.9237 C.3         1 MOL      -0.0317
     35 N16        44.3325   17.9805   32.5534 N.4         1 MOL       0.2272
     36 C14        45.2020   19.1200   32.9203 C.3         1 MOL      -0.0317
     37 C11        44.6812   20.4546   32.3257 C.3         1 MOL       0.0001
     38 H1         37.2800   23.2387   39.8829 H           1 MOL       0.2248
     39 H2         36.9423   21.2463   41.1073 H           1 MOL       0.0391
     40 H3         33.1998   20.6851   42.9602 H           1 MOL       0.0393
     41 H4         32.4154   22.7617   42.0041 H           1 MOL       0.0546
     42 H5         33.8279   24.0391   40.5546 H           1 MOL       0.0398
     43 H6         36.6146   20.7278   44.2207 H           1 MOL       0.0536
     44 H7         37.3537   19.1978   43.7216 H           1 MOL       0.0536
     45 H8         34.7349   19.5474   45.2994 H           1 MOL       0.0579
     46 H9         36.2615   18.8831   45.9022 H           1 MOL       0.0579
     47 H10        33.4545   18.0852   43.6020 H           1 MOL       0.0579
     48 H11        34.2646   16.5890   43.1126 H           1 MOL       0.0579
     49 H12        35.9872   17.7823   41.8978 H           1 MOL       0.0536
     50 H13        34.4373   18.4557   41.3900 H           1 MOL       0.0536
     51 H14        36.1256   26.5659   37.8941 H           1 MOL       0.0652
     52 H15        37.7193   27.5755   36.4438 H           1 MOL       0.0569
     53 H16        39.7043   27.5890   35.1848 H           1 MOL       0.0406
     54 H17        39.7358   26.1586   34.1554 H           1 MOL       0.0406
     55 H18        40.8374   26.2827   35.5456 H           1 MOL       0.0406
     56 H19        38.0416   22.8362   37.4465 H           1 MOL       0.0658
     57 H20        39.0093   23.8134   33.7182 H           1 MOL       0.0538
     58 H21        40.6838   22.5210   32.5525 H           1 MOL       0.0598
     59 H22        40.9580   23.0187   37.4021 H           1 MOL       0.0568
     60 H23        42.8501   21.4754   31.8794 H           1 MOL       0.0460
     61 H24        42.3395   19.2705   31.1651 H           1 MOL       0.0340
     62 H25        41.2860   19.5473   32.5461 H           1 MOL       0.0340
     63 H26        42.3518   17.2798   32.5937 H           1 MOL       0.0815
     64 H27        42.8140   18.2267   34.0085 H           1 MOL       0.0815
     65 H28        44.3852   17.8479   31.5410 H           1 MOL       0.2013
     66 H29        44.6873   17.1366   33.0055 H           1 MOL       0.2013
     67 H30        46.2028   18.9237   32.5333 H           1 MOL       0.0815
     68 H31        45.2763   19.1894   34.0057 H           1 MOL       0.0815
     69 H32        45.2714   21.2851   32.7198 H           1 MOL       0.0340
     70 H33        44.8471   20.4265   31.2461 H           1 MOL       0.0340
@<TRIPOS>BOND
     1     1     2   2
     2     2     3  am
     3     2    16   1
     4     3     4   1
     5     4     5  ar
     6     4     9  ar
     7     5     6  ar
     8     6     7  ar
     9     6    10   1
    10     7     8  ar
    11     8     9  ar
    12    10    11   1
    13    10    15   1
    14    11    12   1
    15    12    13   1
    16    13    14   1
    17    14    15   1
    18    16    17  ar
    19    16    22  ar
    20    17    18  ar
    21    18    19  ar
    22    19    20   1
    23    19    21  ar
    24    21    22  ar
    25    21    23   1
    26    23    24  ar
    27    23    29  ar
    28    24    25  ar
    29    25    26  ar
    30    26    27  ar
    31    26    30   1
    32    27    28   1
    33    27    29  ar
    34    28    31   1
    35    30    31   2
    36    30    32   1
    37    32    33   1
    38    32    37   1
    39    33    34   1
    40    34    35   1
    41    35    36   1
    42    36    37   1
    43     3    38   1
    44     5    39   1
    45     7    40   1
    46     8    41   1
    47     9    42   1
    48    11    43   1
    49    11    44   1
    50    12    45   1
    51    12    46   1
    52    14    47   1
    53    14    48   1
    54    15    49   1
    55    15    50   1
    56    17    51   1
    57    18    52   1
    58    20    53   1
    59    20    54   1
    60    20    55   1
    61    22    56   1
    62    24    57   1
    63    25    58   1
    64    29    59   1
    65    32    60   1
    66    33    61   1
    67    33    62   1
    68    34    63   1
    69    34    64   1
    70    35    65   1
    71    35    66   1
    72    36    67   1
    73    36    68   1
    74    37    69   1
    75    37    70   1
@<TRIPOS>SUBSTRUCTURE
     1  MOL      2

