@<TRIPOS>MOLECULE
3e93_ligand_072
    70    75
SMALL
GAST_HUCK
****
This file was generated by PARSER (from files_GN.cpp)

@<TRIPOS>ATOM
      1 O25        41.0475   18.5082   37.2100 O.2         1 MOL      -0.3760
      2 C22        41.0671   19.7404   37.1357 C.2         1 MOL       0.2274
      3 N24        41.9136   20.3920   36.3402 N.am        1 MOL      -0.2370
      4 C26        42.7135   19.9239   35.3292 C.ar        1 MOL       0.0536
      5 C27        43.1973   18.6003   35.1954 C.ar        1 MOL      -0.0255
      6 C29        43.8586   18.1380   34.0220 C.ar        1 MOL       0.0259
      7 C32        44.1159   19.1029   33.0124 C.ar        1 MOL      -0.0595
      8 C30        43.7265   20.4389   33.1565 C.ar        1 MOL      -0.0865
      9 C28        43.0283   20.8482   34.3056 C.ar        1 MOL      -0.0544
     10 N31        44.1748   16.8136   33.8439 N.pl3       1 MOL      -0.3075
     11 C33        44.4228   15.8929   34.9441 C.3         1 MOL       0.0499
     12 C35        43.3621   14.7643   34.9344 C.3         1 MOL       0.0673
     13 O37        43.3029   14.1293   33.6413 O.3         1 MOL      -0.3759
     14 C36        43.0788   15.0454   32.5471 C.3         1 MOL       0.0673
     15 C34        44.1417   16.1772   32.5321 C.3         1 MOL       0.0499
     16 C19        40.1107   20.4335   37.8683 C.ar        1 MOL       0.0497
     17 C23        38.7694   19.9958   37.8812 C.ar        1 MOL      -0.0479
     18 C20        37.7776   20.7111   38.5689 C.ar        1 MOL      -0.0536
     19 C18        38.0947   21.8798   39.2989 C.ar        1 MOL      -0.0326
     20 C21        36.9884   22.6526   39.9286 C.3         1 MOL      -0.0276
     21 C15        39.4539   22.3077   39.3467 C.ar        1 MOL      -0.0123
     22 C17        40.4366   21.5990   38.6117 C.ar        1 MOL      -0.0399
     23 C12        39.8547   23.4590   40.0870 C.ar        1 MOL      -0.0269
     24 C9         40.4062   24.5863   39.4271 C.ar        1 MOL      -0.0647
     25 C4         40.6940   25.7763   40.1319 C.ar        1 MOL      -0.0614
     26 C1         40.4326   25.8439   41.5224 C.ar        1 MOL       0.0282
     27 C3         39.9544   24.7107   42.1679 C.ar        1 MOL       0.1528
     28 O8         39.8154   24.9921   43.4797 O.3         1 MOL      -0.1790
     29 C7         39.6822   23.5114   41.4920 C.ar        1 MOL      -0.0179
     30 C2         40.5323   26.8330   42.5049 C.2         1 MOL       0.0534
     31 N6         40.1627   26.2336   43.6610 N.2         1 MOL      -0.1500
     32 C5         40.9570   28.2682   42.5258 C.3         1 MOL       0.0120
     33 C10        39.8211   29.2016   43.0615 C.3         1 MOL       0.0001
     34 C13        38.7696   29.5374   41.9723 C.3         1 MOL      -0.0317
     35 N16        39.4180   30.1492   40.7941 N.4         1 MOL       0.2272
     36 C14        40.4663   29.3007   40.1756 C.3         1 MOL      -0.0317
     37 C11        41.5488   28.8829   41.2175 C.3         1 MOL       0.0001
     38 H1         41.8221   21.3601   36.3680 H           1 MOL       0.2248
     39 H2         42.9980   17.9366   35.9353 H           1 MOL       0.0391
     40 H3         44.6340   18.8452   32.1674 H           1 MOL       0.0393
     41 H4         43.9353   21.1201   32.4179 H           1 MOL       0.0546
     42 H5         42.7106   21.8176   34.3668 H           1 MOL       0.0398
     43 H6         44.4405   16.3661   35.9284 H           1 MOL       0.0536
     44 H7         45.4136   15.4474   34.8121 H           1 MOL       0.0536
     45 H8         42.3816   15.1664   35.2023 H           1 MOL       0.0579
     46 H9         43.6305   14.0051   35.6713 H           1 MOL       0.0579
     47 H10        42.0741   15.4781   32.6214 H           1 MOL       0.0579
     48 H11        43.1336   14.4847   31.6092 H           1 MOL       0.0579
     49 H12        45.1246   15.7563   32.2991 H           1 MOL       0.0536
     50 H13        43.8684   16.8557   31.7221 H           1 MOL       0.0536
     51 H14        38.4842   19.1690   37.3439 H           1 MOL       0.0652
     52 H15        36.8129   20.3708   38.5259 H           1 MOL       0.0569
     53 H16        36.0006   22.2661   39.6628 H           1 MOL       0.0406
     54 H17        37.0302   23.6961   39.6057 H           1 MOL       0.0406
     55 H18        37.0732   22.6131   41.0150 H           1 MOL       0.0406
     56 H19        41.4097   21.9176   38.6281 H           1 MOL       0.0658
     57 H20        40.5723   24.5671   38.4165 H           1 MOL       0.0538
     58 H21        41.0864   26.5641   39.6252 H           1 MOL       0.0598
     59 H22        39.3318   22.7125   42.0149 H           1 MOL       0.0568
     60 H23        41.7675   28.3018   43.2590 H           1 MOL       0.0460
     61 H24        40.2638   30.1411   43.4100 H           1 MOL       0.0340
     62 H25        39.3156   28.7513   43.9212 H           1 MOL       0.0340
     63 H26        38.0497   30.2546   42.3734 H           1 MOL       0.0815
     64 H27        38.2229   28.6329   41.6858 H           1 MOL       0.0815
     65 H28        39.8386   31.0373   41.0831 H           1 MOL       0.2013
     66 H29        38.7009   30.3346   40.0886 H           1 MOL       0.2013
     67 H30        40.9440   29.8848   39.3808 H           1 MOL       0.0815
     68 H31        39.9921   28.4199   39.7249 H           1 MOL       0.0815
     69 H32        42.2798   28.2018   40.7810 H           1 MOL       0.0340
     70 H33        42.1029   29.7866   41.5005 H           1 MOL       0.0340
@<TRIPOS>BOND
     1     1     2   2
     2     2     3  am
     3     2    16   1
     4     3     4   1
     5     4     5  ar
     6     4     9  ar
     7     5     6  ar
     8     6     7  ar
     9     6    10   1
    10     7     8  ar
    11     8     9  ar
    12    10    11   1
    13    10    15   1
    14    11    12   1
    15    12    13   1
    16    13    14   1
    17    14    15   1
    18    16    17  ar
    19    16    22  ar
    20    17    18  ar
    21    18    19  ar
    22    19    20   1
    23    19    21  ar
    24    21    22  ar
    25    21    23   1
    26    23    24  ar
    27    23    29  ar
    28    24    25  ar
    29    25    26  ar
    30    26    27  ar
    31    26    30   1
    32    27    28   1
    33    27    29  ar
    34    28    31   1
    35    30    31   2
    36    30    32   1
    37    32    33   1
    38    32    37   1
    39    33    34   1
    40    34    35   1
    41    35    36   1
    42    36    37   1
    43     3    38   1
    44     5    39   1
    45     7    40   1
    46     8    41   1
    47     9    42   1
    48    11    43   1
    49    11    44   1
    50    12    45   1
    51    12    46   1
    52    14    47   1
    53    14    48   1
    54    15    49   1
    55    15    50   1
    56    17    51   1
    57    18    52   1
    58    20    53   1
    59    20    54   1
    60    20    55   1
    61    22    56   1
    62    24    57   1
    63    25    58   1
    64    29    59   1
    65    32    60   1
    66    33    61   1
    67    33    62   1
    68    34    63   1
    69    34    64   1
    70    35    65   1
    71    35    66   1
    72    36    67   1
    73    36    68   1
    74    37    69   1
    75    37    70   1
@<TRIPOS>SUBSTRUCTURE
     1  MOL      2

