@<TRIPOS>MOLECULE
3e93_ligand_003
    70    75
SMALL
GAST_HUCK
****
This file was generated by PARSER (from files_GN.cpp)

@<TRIPOS>ATOM
      1 O25        40.7750   29.5922   36.1278 O.2         1 MOL      -0.3760
      2 C22        39.8036   29.4576   35.3902 C.2         1 MOL       0.2274
      3 N24        38.8869   28.5347   35.6880 N.am        1 MOL      -0.2370
      4 C26        38.8028   27.7268   36.7907 C.ar        1 MOL       0.0536
      5 C27        38.3683   26.3953   36.6047 C.ar        1 MOL      -0.0255
      6 C29        38.3047   25.4936   37.6922 C.ar        1 MOL       0.0259
      7 C32        38.6161   25.9487   38.9900 C.ar        1 MOL      -0.0595
      8 C30        38.9639   27.2930   39.1993 C.ar        1 MOL      -0.0865
      9 C28        39.0700   28.1732   38.1064 C.ar        1 MOL      -0.0544
     10 N31        37.9601   24.1937   37.4996 N.pl3       1 MOL      -0.3075
     11 C33        36.6197   23.8316   37.1151 C.3         1 MOL       0.0499
     12 C35        36.6601   23.1097   35.7486 C.3         1 MOL       0.0673
     13 O37        37.6063   22.0189   35.7838 O.3         1 MOL      -0.3759
     14 C36        38.9466   22.4106   36.1578 C.3         1 MOL       0.0673
     15 C34        38.9647   23.1581   37.5181 C.3         1 MOL       0.0499
     16 C19        39.7293   30.2112   34.2029 C.ar        1 MOL       0.0497
     17 C23        38.5196   30.3209   33.4721 C.ar        1 MOL      -0.0479
     18 C20        38.4384   31.0651   32.2827 C.ar        1 MOL      -0.0536
     19 C18        39.5667   31.7358   31.7630 C.ar        1 MOL      -0.0326
     20 C21        39.4397   32.5152   30.5005 C.3         1 MOL      -0.0276
     21 C15        40.7912   31.6487   32.4794 C.ar        1 MOL      -0.0123
     22 C17        40.8544   30.9047   33.6835 C.ar        1 MOL      -0.0399
     23 C12        41.9823   32.2511   32.0057 C.ar        1 MOL      -0.0269
     24 C9         42.8153   31.5479   31.0981 C.ar        1 MOL      -0.0647
     25 C4         44.0260   32.1119   30.6458 C.ar        1 MOL      -0.0614
     26 C1         44.3981   33.3868   31.1143 C.ar        1 MOL       0.0282
     27 C3         43.5772   34.0799   31.9981 C.ar        1 MOL       0.1528
     28 O8         44.1697   35.2574   32.2892 O.3         1 MOL      -0.1790
     29 C7         42.3654   33.5380   32.4553 C.ar        1 MOL      -0.0179
     30 C2         45.5037   34.2079   30.9021 C.2         1 MOL       0.0534
     31 N6         45.2998   35.3222   31.6406 N.2         1 MOL      -0.1500
     32 C5         46.6912   33.9367   30.0414 C.3         1 MOL       0.0120
     33 C10        48.0001   33.7436   30.8676 C.3         1 MOL       0.0001
     34 C13        48.6179   35.0814   31.3499 C.3         1 MOL      -0.0317
     35 N16        48.7722   36.0458   30.2365 N.4         1 MOL       0.2272
     36 C14        47.5298   36.3226   29.4826 C.3         1 MOL      -0.0317
     37 C11        46.8943   35.0181   28.9364 C.3         1 MOL       0.0001
     38 H1         38.2411   28.3405   34.9931 H           1 MOL       0.2248
     39 H2         38.1567   26.0587   35.6612 H           1 MOL       0.0391
     40 H3         38.5452   25.3158   39.7900 H           1 MOL       0.0393
     41 H4         39.1351   27.6313   40.1469 H           1 MOL       0.0546
     42 H5         39.3175   29.1493   38.2781 H           1 MOL       0.0398
     43 H6         35.9509   24.6950   37.0615 H           1 MOL       0.0536
     44 H7         36.2150   23.1501   37.8692 H           1 MOL       0.0536
     45 H8         36.9257   23.8156   34.9566 H           1 MOL       0.0579
     46 H9         35.6699   22.7080   35.5257 H           1 MOL       0.0579
     47 H10        39.3784   23.0409   35.3736 H           1 MOL       0.0579
     48 H11        39.5567   21.5082   36.2336 H           1 MOL       0.0579
     49 H12        38.7369   22.4551   38.3229 H           1 MOL       0.0536
     50 H13        39.9717   23.5517   37.6922 H           1 MOL       0.0536
     51 H14        37.6648   29.8719   33.8051 H           1 MOL       0.0652
     52 H15        37.5374   31.1139   31.8000 H           1 MOL       0.0569
     53 H16        38.4358   32.4582   30.0747 H           1 MOL       0.0406
     54 H17        40.1401   32.1368   29.7545 H           1 MOL       0.0406
     55 H18        39.6628   33.5658   30.6940 H           1 MOL       0.0406
     56 H19        41.7505   30.8506   34.1790 H           1 MOL       0.0658
     57 H20        42.5497   30.6172   30.7675 H           1 MOL       0.0538
     58 H21        44.6209   31.5959   29.9973 H           1 MOL       0.0598
     59 H22        41.7850   34.0688   33.1098 H           1 MOL       0.0568
     60 H23        46.5107   32.9915   29.5217 H           1 MOL       0.0460
     61 H24        48.7395   33.2386   30.2373 H           1 MOL       0.0340
     62 H25        47.8142   33.0967   31.7290 H           1 MOL       0.0340
     63 H26        49.6057   34.8897   31.7741 H           1 MOL       0.0815
     64 H27        47.9998   35.5250   32.1340 H           1 MOL       0.0815
     65 H28        49.4755   35.6870   29.5863 H           1 MOL       0.2013
     66 H29        49.1023   36.9306   30.6277 H           1 MOL       0.2013
     67 H30        47.7722   36.9830   28.6479 H           1 MOL       0.0815
     68 H31        46.8278   36.8516   30.1291 H           1 MOL       0.0815
     69 H32        45.9419   35.2492   28.4510 H           1 MOL       0.0340
     70 H33        47.5618   34.6137   28.1694 H           1 MOL       0.0340
@<TRIPOS>BOND
     1     1     2   2
     2     2     3  am
     3     2    16   1
     4     3     4   1
     5     4     5  ar
     6     4     9  ar
     7     5     6  ar
     8     6     7  ar
     9     6    10   1
    10     7     8  ar
    11     8     9  ar
    12    10    11   1
    13    10    15   1
    14    11    12   1
    15    12    13   1
    16    13    14   1
    17    14    15   1
    18    16    17  ar
    19    16    22  ar
    20    17    18  ar
    21    18    19  ar
    22    19    20   1
    23    19    21  ar
    24    21    22  ar
    25    21    23   1
    26    23    24  ar
    27    23    29  ar
    28    24    25  ar
    29    25    26  ar
    30    26    27  ar
    31    26    30   1
    32    27    28   1
    33    27    29  ar
    34    28    31   1
    35    30    31   2
    36    30    32   1
    37    32    33   1
    38    32    37   1
    39    33    34   1
    40    34    35   1
    41    35    36   1
    42    36    37   1
    43     3    38   1
    44     5    39   1
    45     7    40   1
    46     8    41   1
    47     9    42   1
    48    11    43   1
    49    11    44   1
    50    12    45   1
    51    12    46   1
    52    14    47   1
    53    14    48   1
    54    15    49   1
    55    15    50   1
    56    17    51   1
    57    18    52   1
    58    20    53   1
    59    20    54   1
    60    20    55   1
    61    22    56   1
    62    24    57   1
    63    25    58   1
    64    29    59   1
    65    32    60   1
    66    33    61   1
    67    33    62   1
    68    34    63   1
    69    34    64   1
    70    35    65   1
    71    35    66   1
    72    36    67   1
    73    36    68   1
    74    37    69   1
    75    37    70   1
@<TRIPOS>SUBSTRUCTURE
     1  MOL      2

