@<TRIPOS>MOLECULE
3e93_ligand_069
    70    75
SMALL
GAST_HUCK
****
This file was generated by PARSER (from files_GN.cpp)

@<TRIPOS>ATOM
      1 O25        34.6476   14.8245   41.3880 O.2         1 MOL      -0.3760
      2 C22        35.2949   13.9182   40.8765 C.2         1 MOL       0.2274
      3 N24        35.7354   12.8784   41.5789 N.am        1 MOL      -0.2370
      4 C26        35.4723   12.5825   42.8881 C.ar        1 MOL       0.0536
      5 C27        36.5210   12.0604   43.6806 C.ar        1 MOL      -0.0255
      6 C29        36.3638   11.6968   45.0534 C.ar        1 MOL       0.0259
      7 C32        35.0465   11.8630   45.5728 C.ar        1 MOL      -0.0595
      8 C30        33.9837   12.3666   44.8020 C.ar        1 MOL      -0.0865
      9 C28        34.1946   12.7246   43.4639 C.ar        1 MOL      -0.0544
     10 N31        37.4183   11.2183   45.8284 N.pl3       1 MOL      -0.3075
     11 C33        38.7633   11.1008   45.2747 C.3         1 MOL       0.0499
     12 C35        39.8945   10.6253   46.2219 C.3         1 MOL       0.0673
     13 O37        39.4051    9.6575   47.1613 O.3         1 MOL      -0.3759
     14 C36        38.3995   10.2338   48.0068 C.3         1 MOL       0.0673
     15 C34        37.1808   10.7298   47.1867 C.3         1 MOL       0.0499
     16 C19        35.7356   14.0920   39.5794 C.ar        1 MOL       0.0497
     17 C23        35.3030   13.2351   38.5468 C.ar        1 MOL      -0.0479
     18 C20        35.7468   13.4283   37.2245 C.ar        1 MOL      -0.0536
     19 C18        36.6521   14.4640   36.9043 C.ar        1 MOL      -0.0326
     20 C21        37.0883   14.6494   35.4917 C.3         1 MOL      -0.0276
     21 C15        37.1138   15.3120   37.9454 C.ar        1 MOL      -0.0123
     22 C17        36.6411   15.1289   39.2673 C.ar        1 MOL      -0.0399
     23 C12        38.0906   16.3108   37.7352 C.ar        1 MOL      -0.0269
     24 C9         37.7096   17.6614   37.5294 C.ar        1 MOL      -0.0647
     25 C4         38.6845   18.6680   37.3799 C.ar        1 MOL      -0.0614
     26 C1         40.0427   18.3058   37.4303 C.ar        1 MOL       0.0282
     27 C3         40.4203   16.9831   37.6223 C.ar        1 MOL       0.1528
     28 O8         41.7687   16.9222   37.6457 O.3         1 MOL      -0.1790
     29 C7         39.4634   15.9684   37.7835 C.ar        1 MOL      -0.0179
     30 C2         41.2335   19.0255   37.3461 C.2         1 MOL       0.0534
     31 N6         42.2366   18.1337   37.4815 N.2         1 MOL      -0.1500
     32 C5         41.3931   20.4957   37.1858 C.3         1 MOL       0.0120
     33 C10        42.3100   20.8942   35.9849 C.3         1 MOL       0.0001
     34 C13        43.8214   20.7700   36.3040 C.3         1 MOL      -0.0317
     35 N16        44.1609   21.4810   37.5545 N.4         1 MOL       0.2272
     36 C14        43.4002   21.0126   38.7363 C.3         1 MOL      -0.0317
     37 C11        41.8765   21.1667   38.5066 C.3         1 MOL       0.0001
     38 H1         36.4097   12.3285   41.1448 H           1 MOL       0.2248
     39 H2         37.4256   11.9559   43.2214 H           1 MOL       0.0391
     40 H3         34.8194   11.6174   46.5367 H           1 MOL       0.0393
     41 H4         33.0539   12.4683   45.2157 H           1 MOL       0.0546
     42 H5         33.4055   13.0609   42.9102 H           1 MOL       0.0398
     43 H6         39.0817   12.0714   44.8806 H           1 MOL       0.0536
     44 H7         38.7210   10.3886   44.4449 H           1 MOL       0.0536
     45 H8         40.3348   11.4782   46.7508 H           1 MOL       0.0579
     46 H9         40.6916   10.1609   45.6379 H           1 MOL       0.0579
     47 H10        38.8249   11.0562   48.5945 H           1 MOL       0.0579
     48 H11        38.0752    9.4670   48.7158 H           1 MOL       0.0579
     49 H12        36.4789    9.8933   47.1146 H           1 MOL       0.0536
     50 H13        36.7145   11.5222   47.7785 H           1 MOL       0.0536
     51 H14        34.6358   12.4834   38.7392 H           1 MOL       0.0652
     52 H15        35.4016   12.7959   36.4978 H           1 MOL       0.0569
     53 H16        36.6094   13.9429   34.8099 H           1 MOL       0.0406
     54 H17        38.1678   14.5094   35.4142 H           1 MOL       0.0406
     55 H18        36.8378   15.6595   35.1585 H           1 MOL       0.0406
     56 H19        36.9794   15.7454   40.0153 H           1 MOL       0.0658
     57 H20        36.7204   17.9201   37.5046 H           1 MOL       0.0538
     58 H21        38.4014   19.6399   37.2410 H           1 MOL       0.0598
     59 H22        39.7681   15.0061   37.9428 H           1 MOL       0.0568
     60 H23        40.4068   20.9119   36.9673 H           1 MOL       0.0460
     61 H24        42.1054   21.9371   35.7227 H           1 MOL       0.0340
     62 H25        42.0738   20.2837   35.1104 H           1 MOL       0.0340
     63 H26        44.4000   21.2097   35.4896 H           1 MOL       0.0815
     64 H27        44.1127   19.7204   36.3847 H           1 MOL       0.0815
     65 H28        43.9609   22.4743   37.4308 H           1 MOL       0.2013
     66 H29        45.1603   21.3759   37.7345 H           1 MOL       0.2013
     67 H30        43.6952   21.6092   39.6009 H           1 MOL       0.0815
     68 H31        43.6530   19.9733   38.9539 H           1 MOL       0.0815
     69 H32        41.3344   20.7580   39.3637 H           1 MOL       0.0340
     70 H33        41.6434   22.2333   38.4600 H           1 MOL       0.0340
@<TRIPOS>BOND
     1     1     2   2
     2     2     3  am
     3     2    16   1
     4     3     4   1
     5     4     5  ar
     6     4     9  ar
     7     5     6  ar
     8     6     7  ar
     9     6    10   1
    10     7     8  ar
    11     8     9  ar
    12    10    11   1
    13    10    15   1
    14    11    12   1
    15    12    13   1
    16    13    14   1
    17    14    15   1
    18    16    17  ar
    19    16    22  ar
    20    17    18  ar
    21    18    19  ar
    22    19    20   1
    23    19    21  ar
    24    21    22  ar
    25    21    23   1
    26    23    24  ar
    27    23    29  ar
    28    24    25  ar
    29    25    26  ar
    30    26    27  ar
    31    26    30   1
    32    27    28   1
    33    27    29  ar
    34    28    31   1
    35    30    31   2
    36    30    32   1
    37    32    33   1
    38    32    37   1
    39    33    34   1
    40    34    35   1
    41    35    36   1
    42    36    37   1
    43     3    38   1
    44     5    39   1
    45     7    40   1
    46     8    41   1
    47     9    42   1
    48    11    43   1
    49    11    44   1
    50    12    45   1
    51    12    46   1
    52    14    47   1
    53    14    48   1
    54    15    49   1
    55    15    50   1
    56    17    51   1
    57    18    52   1
    58    20    53   1
    59    20    54   1
    60    20    55   1
    61    22    56   1
    62    24    57   1
    63    25    58   1
    64    29    59   1
    65    32    60   1
    66    33    61   1
    67    33    62   1
    68    34    63   1
    69    34    64   1
    70    35    65   1
    71    35    66   1
    72    36    67   1
    73    36    68   1
    74    37    69   1
    75    37    70   1
@<TRIPOS>SUBSTRUCTURE
     1  MOL      2

