@<TRIPOS>MOLECULE
3e93_ligand_002
    70    75
SMALL
GAST_HUCK
****
This file was generated by PARSER (from files_GN.cpp)

@<TRIPOS>ATOM
      1 O25        38.6110   28.0963   36.8181 O.2         1 MOL      -0.3760
      2 C22        39.4964   27.5183   36.1854 C.2         1 MOL       0.2274
      3 N24        40.0379   28.0974   35.1147 N.am        1 MOL      -0.2370
      4 C26        39.7438   29.2626   34.4444 C.ar        1 MOL       0.0536
      5 C27        40.6270   29.6406   33.4080 C.ar        1 MOL      -0.0255
      6 C29        40.4119   30.7883   32.5959 C.ar        1 MOL       0.0259
      7 C32        39.2645   31.5740   32.8856 C.ar        1 MOL      -0.0595
      8 C30        38.3732   31.2210   33.9067 C.ar        1 MOL      -0.0865
      9 C28        38.6045   30.0707   34.6706 C.ar        1 MOL      -0.0544
     10 N31        41.2675   31.1303   31.5760 N.pl3       1 MOL      -0.3075
     11 C33        40.8026   31.6689   30.3062 C.3         1 MOL       0.0499
     12 C35        41.3967   33.0825   30.1035 C.3         1 MOL       0.0673
     13 O37        42.8343   33.0401   30.2197 O.3         1 MOL      -0.3759
     14 C36        43.3049   32.4780   31.4654 C.3         1 MOL       0.0673
     15 C34        42.7125   31.0656   31.7144 C.3         1 MOL       0.0499
     16 C19        39.8557   26.2258   36.5892 C.ar        1 MOL       0.0497
     17 C23        39.5695   25.7685   37.9005 C.ar        1 MOL      -0.0479
     18 C20        39.8132   24.4445   38.2835 C.ar        1 MOL      -0.0536
     19 C18        40.3542   23.5067   37.3815 C.ar        1 MOL      -0.0326
     20 C21        40.4731   22.0907   37.8314 C.3         1 MOL      -0.0276
     21 C15        40.6939   23.9435   36.0640 C.ar        1 MOL      -0.0123
     22 C17        40.4405   25.2885   35.6949 C.ar        1 MOL      -0.0399
     23 C12        41.2411   23.0691   35.0767 C.ar        1 MOL      -0.0269
     24 C9         42.4109   22.3133   35.3462 C.ar        1 MOL      -0.0647
     25 C4         42.9312   21.4059   34.3960 C.ar        1 MOL      -0.0614
     26 C1         42.3032   21.3064   33.1436 C.ar        1 MOL       0.0282
     27 C3         41.1845   22.0774   32.8496 C.ar        1 MOL       0.1528
     28 O8         40.7889   21.7860   31.5950 O.3         1 MOL      -0.1790
     29 C7         40.6342   22.9540   33.7988 C.ar        1 MOL      -0.0179
     30 C2         42.5358   20.5325   32.0131 C.2         1 MOL       0.0534
     31 N6         41.5868   20.8687   31.1094 N.2         1 MOL      -0.1500
     32 C5         43.5623   19.4698   31.8608 C.3         1 MOL       0.0120
     33 C10        45.0117   20.0430   31.8901 C.3         1 MOL       0.0001
     34 C13        46.0642   18.9137   31.7429 C.3         1 MOL      -0.0317
     35 N16        45.8066   18.0804   30.5455 N.4         1 MOL       0.2272
     36 C14        44.4500   17.4929   30.4890 C.3         1 MOL      -0.0317
     37 C11        43.3590   18.5911   30.5871 C.3         1 MOL       0.0001
     38 H1         40.8092   27.6271   34.7555 H           1 MOL       0.2248
     39 H2         41.4180   29.0244   33.2024 H           1 MOL       0.0391
     40 H3         39.0928   32.4499   32.3924 H           1 MOL       0.0393
     41 H4         37.5521   31.8023   34.0908 H           1 MOL       0.0546
     42 H5         37.9149   29.8365   35.3770 H           1 MOL       0.0398
     43 H6         39.7154   31.7151   30.2073 H           1 MOL       0.0536
     44 H7         41.1530   31.0196   29.4976 H           1 MOL       0.0536
     45 H8         40.9765   33.7778   30.8332 H           1 MOL       0.0579
     46 H9         41.1385   33.4405   29.1052 H           1 MOL       0.0579
     47 H10        43.0428   33.1419   32.2932 H           1 MOL       0.0579
     48 H11        44.3928   32.4100   31.4196 H           1 MOL       0.0579
     49 H12        43.1214   30.3597   30.9871 H           1 MOL       0.0536
     50 H13        43.0458   30.7529   32.7080 H           1 MOL       0.0536
     51 H14        39.1477   26.3959   38.5918 H           1 MOL       0.0652
     52 H15        39.5612   24.1659   39.2349 H           1 MOL       0.0569
     53 H16        40.0489   21.9330   38.8279 H           1 MOL       0.0406
     54 H17        41.5240   21.7956   37.8728 H           1 MOL       0.0406
     55 H18        39.9389   21.4380   37.1312 H           1 MOL       0.0406
     56 H19        40.6575   25.5804   34.7361 H           1 MOL       0.0658
     57 H20        42.8955   22.4084   36.2419 H           1 MOL       0.0538
     58 H21        43.7518   20.8428   34.6216 H           1 MOL       0.0598
     59 H22        39.7934   23.4818   33.5576 H           1 MOL       0.0568
     60 H23        43.4450   18.8056   32.7223 H           1 MOL       0.0460
     61 H24        45.1941   20.5733   32.8292 H           1 MOL       0.0340
     62 H25        45.1491   20.7584   31.0746 H           1 MOL       0.0340
     63 H26        46.0580   18.2817   32.6377 H           1 MOL       0.0815
     64 H27        47.0595   19.3545   31.6507 H           1 MOL       0.0815
     65 H28        46.4906   17.3240   30.5478 H           1 MOL       0.2013
     66 H29        45.9454   18.6543   29.7122 H           1 MOL       0.2013
     67 H30        44.3304   16.7690   31.3006 H           1 MOL       0.0815
     68 H31        44.3422   16.9588   29.5409 H           1 MOL       0.0815
     69 H32        43.4043   19.2166   29.6887 H           1 MOL       0.0340
     70 H33        42.3743   18.1104   30.6196 H           1 MOL       0.0340
@<TRIPOS>BOND
     1     1     2   2
     2     2     3  am
     3     2    16   1
     4     3     4   1
     5     4     5  ar
     6     4     9  ar
     7     5     6  ar
     8     6     7  ar
     9     6    10   1
    10     7     8  ar
    11     8     9  ar
    12    10    11   1
    13    10    15   1
    14    11    12   1
    15    12    13   1
    16    13    14   1
    17    14    15   1
    18    16    17  ar
    19    16    22  ar
    20    17    18  ar
    21    18    19  ar
    22    19    20   1
    23    19    21  ar
    24    21    22  ar
    25    21    23   1
    26    23    24  ar
    27    23    29  ar
    28    24    25  ar
    29    25    26  ar
    30    26    27  ar
    31    26    30   1
    32    27    28   1
    33    27    29  ar
    34    28    31   1
    35    30    31   2
    36    30    32   1
    37    32    33   1
    38    32    37   1
    39    33    34   1
    40    34    35   1
    41    35    36   1
    42    36    37   1
    43     3    38   1
    44     5    39   1
    45     7    40   1
    46     8    41   1
    47     9    42   1
    48    11    43   1
    49    11    44   1
    50    12    45   1
    51    12    46   1
    52    14    47   1
    53    14    48   1
    54    15    49   1
    55    15    50   1
    56    17    51   1
    57    18    52   1
    58    20    53   1
    59    20    54   1
    60    20    55   1
    61    22    56   1
    62    24    57   1
    63    25    58   1
    64    29    59   1
    65    32    60   1
    66    33    61   1
    67    33    62   1
    68    34    63   1
    69    34    64   1
    70    35    65   1
    71    35    66   1
    72    36    67   1
    73    36    68   1
    74    37    69   1
    75    37    70   1
@<TRIPOS>SUBSTRUCTURE
     1  MOL      2

