@<TRIPOS>MOLECULE
3e93_ligand_068
    70    75
SMALL
GAST_HUCK
****
This file was generated by PARSER (from files_GN.cpp)

@<TRIPOS>ATOM
      1 O25        37.0261   18.7561   36.1544 O.2         1 MOL      -0.3760
      2 C22        37.3625   18.7669   37.3341 C.2         1 MOL       0.2274
      3 N24        38.3365   19.5632   37.7615 N.am        1 MOL      -0.2370
      4 C26        39.0535   20.5325   37.1107 C.ar        1 MOL       0.0536
      5 C27        38.5503   21.3768   36.0900 C.ar        1 MOL      -0.0255
      6 C29        39.3112   22.4414   35.5200 C.ar        1 MOL       0.0259
      7 C32        40.6321   22.6029   36.0356 C.ar        1 MOL      -0.0595
      8 C30        41.1584   21.7607   37.0282 C.ar        1 MOL      -0.0865
      9 C28        40.3683   20.7409   37.5730 C.ar        1 MOL      -0.0544
     10 N31        38.8133   23.2747   34.5288 N.pl3       1 MOL      -0.3075
     11 C33        37.3955   23.3906   34.2034 C.3         1 MOL       0.0499
     12 C35        37.1676   23.0814   32.7021 C.3         1 MOL       0.0673
     13 O37        37.9898   23.9347   31.8776 O.3         1 MOL      -0.3759
     14 C36        39.3928   23.8531   32.1978 C.3         1 MOL       0.0673
     15 C34        39.6552   24.1361   33.7011 C.3         1 MOL       0.0499
     16 C19        36.8041   17.8324   38.2061 C.ar        1 MOL       0.0497
     17 C23        36.4314   16.5374   37.7730 C.ar        1 MOL      -0.0479
     18 C20        35.9592   15.5765   38.6820 C.ar        1 MOL      -0.0536
     19 C18        35.7949   15.8802   40.0519 C.ar        1 MOL      -0.0326
     20 C21        35.4044   14.7659   40.9596 C.3         1 MOL      -0.0276
     21 C15        36.0585   17.2078   40.4926 C.ar        1 MOL      -0.0123
     22 C17        36.5811   18.1484   39.5675 C.ar        1 MOL      -0.0399
     23 C12        35.7575   17.6732   41.8077 C.ar        1 MOL      -0.0269
     24 C9         34.4861   17.4301   42.3990 C.ar        1 MOL      -0.0647
     25 C4         34.1441   17.9567   43.6653 C.ar        1 MOL      -0.0614
     26 C1         35.0599   18.7962   44.3447 C.ar        1 MOL       0.0282
     27 C3         36.2985   19.0367   43.7508 C.ar        1 MOL       0.1528
     28 O8         36.9953   19.8979   44.5170 O.3         1 MOL      -0.1790
     29 C7         36.6753   18.4841   42.5195 C.ar        1 MOL      -0.0179
     30 C2         35.0731   19.5505   45.5281 C.2         1 MOL       0.0534
     31 N6         36.2593   20.2051   45.5480 N.2         1 MOL      -0.1500
     32 C5         34.0723   19.8314   46.6096 C.3         1 MOL       0.0120
     33 C10        34.6450   19.5614   48.0442 C.3         1 MOL       0.0001
     34 C13        34.6578   18.0516   48.3947 C.3         1 MOL      -0.0317
     35 N16        33.3072   17.4664   48.2335 N.4         1 MOL       0.2272
     36 C14        32.7297   17.6406   46.8777 C.3         1 MOL      -0.0317
     37 C11        32.6762   19.1467   46.4928 C.3         1 MOL       0.0001
     38 H1         38.6342   19.3861   38.6701 H           1 MOL       0.2248
     39 H2         37.6192   21.1823   35.7393 H           1 MOL       0.0391
     40 H3         41.2235   23.3820   35.7440 H           1 MOL       0.0393
     41 H4         42.1115   21.8984   37.3684 H           1 MOL       0.0546
     42 H5         40.7621   20.1500   38.3121 H           1 MOL       0.0398
     43 H6         37.0910   24.4231   34.3937 H           1 MOL       0.0536
     44 H7         36.7277   22.7718   34.8032 H           1 MOL       0.0536
     45 H8         36.1229   23.2582   32.4424 H           1 MOL       0.0579
     46 H9         37.3920   22.0335   32.4923 H           1 MOL       0.0579
     47 H10        39.9242   24.5906   31.5919 H           1 MOL       0.0579
     48 H11        39.7773   22.8616   31.9304 H           1 MOL       0.0579
     49 H12        40.7259   23.9992   33.8513 H           1 MOL       0.0536
     50 H13        39.4205   25.1854   33.9132 H           1 MOL       0.0536
     51 H14        36.5506   16.2620   36.7953 H           1 MOL       0.0652
     52 H15        35.7525   14.6355   38.3378 H           1 MOL       0.0569
     53 H16        35.9618   13.8593   40.7060 H           1 MOL       0.0406
     54 H17        34.3363   14.5631   40.8506 H           1 MOL       0.0406
     55 H18        35.6201   14.9893   42.0075 H           1 MOL       0.0406
     56 H19        36.7786   19.1003   39.8890 H           1 MOL       0.0658
     57 H20        33.7905   16.8775   41.8946 H           1 MOL       0.0538
     58 H21        33.2271   17.7460   44.0597 H           1 MOL       0.0598
     59 H22        37.5998   18.6951   42.1434 H           1 MOL       0.0568
     60 H23        33.8937   20.9106   46.5380 H           1 MOL       0.0460
     61 H24        34.0086   20.0760   48.7741 H           1 MOL       0.0340
     62 H25        35.6567   19.9715   48.1517 H           1 MOL       0.0340
     63 H26        34.9679   17.9271   49.4341 H           1 MOL       0.0815
     64 H27        35.3732   17.5239   47.7589 H           1 MOL       0.0815
     65 H28        32.6809   17.9141   48.9098 H           1 MOL       0.2013
     66 H29        33.3562   16.4651   48.4446 H           1 MOL       0.2013
     67 H30        31.7126   17.2356   46.8817 H           1 MOL       0.0815
     68 H31        33.3269   17.0771   46.1536 H           1 MOL       0.0815
     69 H32        32.2658   19.2760   45.4882 H           1 MOL       0.0340
     70 H33        31.9913   19.6430   47.1917 H           1 MOL       0.0340
@<TRIPOS>BOND
     1     1     2   2
     2     2     3  am
     3     2    16   1
     4     3     4   1
     5     4     5  ar
     6     4     9  ar
     7     5     6  ar
     8     6     7  ar
     9     6    10   1
    10     7     8  ar
    11     8     9  ar
    12    10    11   1
    13    10    15   1
    14    11    12   1
    15    12    13   1
    16    13    14   1
    17    14    15   1
    18    16    17  ar
    19    16    22  ar
    20    17    18  ar
    21    18    19  ar
    22    19    20   1
    23    19    21  ar
    24    21    22  ar
    25    21    23   1
    26    23    24  ar
    27    23    29  ar
    28    24    25  ar
    29    25    26  ar
    30    26    27  ar
    31    26    30   1
    32    27    28   1
    33    27    29  ar
    34    28    31   1
    35    30    31   2
    36    30    32   1
    37    32    33   1
    38    32    37   1
    39    33    34   1
    40    34    35   1
    41    35    36   1
    42    36    37   1
    43     3    38   1
    44     5    39   1
    45     7    40   1
    46     8    41   1
    47     9    42   1
    48    11    43   1
    49    11    44   1
    50    12    45   1
    51    12    46   1
    52    14    47   1
    53    14    48   1
    54    15    49   1
    55    15    50   1
    56    17    51   1
    57    18    52   1
    58    20    53   1
    59    20    54   1
    60    20    55   1
    61    22    56   1
    62    24    57   1
    63    25    58   1
    64    29    59   1
    65    32    60   1
    66    33    61   1
    67    33    62   1
    68    34    63   1
    69    34    64   1
    70    35    65   1
    71    35    66   1
    72    36    67   1
    73    36    68   1
    74    37    69   1
    75    37    70   1
@<TRIPOS>SUBSTRUCTURE
     1  MOL      2

