@<TRIPOS>MOLECULE
3e93_ligand_070
    70    75
SMALL
GAST_HUCK
****
This file was generated by PARSER (from files_GN.cpp)

@<TRIPOS>ATOM
      1 O25        36.6124   23.2547   39.3524 O.2         1 MOL      -0.3760
      2 C22        37.2655   22.6010   38.5534 C.2         1 MOL       0.2274
      3 N24        37.3135   21.2763   38.6718 N.am        1 MOL      -0.2370
      4 C26        36.8935   20.4673   39.6933 C.ar        1 MOL       0.0536
      5 C27        36.8675   20.8648   41.0597 C.ar        1 MOL      -0.0255
      6 C29        36.6734   19.9245   42.0989 C.ar        1 MOL       0.0259
      7 C32        36.4154   18.5806   41.7468 C.ar        1 MOL      -0.0595
      8 C30        36.3572   18.1854   40.3986 C.ar        1 MOL      -0.0865
      9 C28        36.6145   19.1217   39.3841 C.ar        1 MOL      -0.0544
     10 N31        36.8052   20.3043   43.4083 N.pl3       1 MOL      -0.3075
     11 C33        36.1350   21.4744   43.9319 C.3         1 MOL       0.0499
     12 C35        35.3143   21.0499   45.1841 C.3         1 MOL       0.0673
     13 O37        36.1607   20.3708   46.1403 O.3         1 MOL      -0.3759
     14 C36        36.7948   19.1900   45.6050 C.3         1 MOL       0.0673
     15 C34        37.6172   19.5465   44.3418 C.3         1 MOL       0.0499
     16 C19        37.9221   23.2700   37.5086 C.ar        1 MOL       0.0497
     17 C23        37.5571   24.5878   37.1473 C.ar        1 MOL      -0.0479
     18 C20        38.2430   25.2986   36.1503 C.ar        1 MOL      -0.0536
     19 C18        39.3502   24.7268   35.4816 C.ar        1 MOL      -0.0326
     20 C21        40.1015   25.5652   34.5074 C.3         1 MOL      -0.0276
     21 C15        39.7250   23.3887   35.8008 C.ar        1 MOL      -0.0123
     22 C17        39.0090   22.6906   36.8002 C.ar        1 MOL      -0.0399
     23 C12        40.8187   22.7215   35.1609 C.ar        1 MOL      -0.0269
     24 C9         40.8338   22.5355   33.7535 C.ar        1 MOL      -0.0647
     25 C4         41.8806   21.8282   33.1280 C.ar        1 MOL      -0.0614
     26 C1         42.9168   21.3078   33.9210 C.ar        1 MOL       0.0282
     27 C3         42.9029   21.4644   35.3005 C.ar        1 MOL       0.1528
     28 O8         43.9821   20.8357   35.8102 O.3         1 MOL      -0.1790
     29 C7         41.8756   22.1742   35.9344 C.ar        1 MOL      -0.0179
     30 C2         44.0734   20.5866   33.6380 C.2         1 MOL       0.0534
     31 N6         44.6641   20.3152   34.8172 N.2         1 MOL      -0.1500
     32 C5         44.5836   20.1895   32.2981 C.3         1 MOL       0.0120
     33 C10        44.1805   18.7293   31.9500 C.3         1 MOL       0.0001
     34 C13        44.7031   18.3460   30.5415 C.3         1 MOL      -0.0317
     35 N16        46.1636   18.5638   30.4302 N.4         1 MOL       0.2272
     36 C14        46.6149   19.9354   30.7624 C.3         1 MOL      -0.0317
     37 C11        46.1227   20.3788   32.1653 C.3         1 MOL       0.0001
     38 H1         37.7216   20.8008   37.9289 H           1 MOL       0.2248
     39 H2         37.1285   21.8163   41.3056 H           1 MOL       0.0391
     40 H3         36.2373   17.8754   42.4647 H           1 MOL       0.0393
     41 H4         36.1597   17.2113   40.1570 H           1 MOL       0.0546
     42 H5         36.6114   18.8095   38.4067 H           1 MOL       0.0398
     43 H6         35.4459   21.9221   43.2087 H           1 MOL       0.0536
     44 H7         36.8663   22.2408   44.2180 H           1 MOL       0.0536
     45 H8         34.4888   20.3934   44.8851 H           1 MOL       0.0579
     46 H9         34.8851   21.9309   45.6679 H           1 MOL       0.0579
     47 H10        36.0479   18.4312   45.3668 H           1 MOL       0.0579
     48 H11        37.4602   18.7841   46.3680 H           1 MOL       0.0579
     49 H12        38.4722   20.1695   44.6454 H           1 MOL       0.0536
     50 H13        38.0290   18.6301   43.9109 H           1 MOL       0.0536
     51 H14        36.7684   25.0566   37.6038 H           1 MOL       0.0652
     52 H15        37.9360   26.2458   35.9226 H           1 MOL       0.0569
     53 H16        39.8330   26.6190   34.5728 H           1 MOL       0.0406
     54 H17        39.8975   25.2283   33.4897 H           1 MOL       0.0406
     55 H18        41.1729   25.4896   34.7014 H           1 MOL       0.0406
     56 H19        39.3051   21.7405   37.0319 H           1 MOL       0.0658
     57 H20        40.0662   22.8804   33.1788 H           1 MOL       0.0538
     58 H21        41.8796   21.6953   32.1090 H           1 MOL       0.0598
     59 H22        41.9008   22.2860   36.9535 H           1 MOL       0.0568
     60 H23        44.1137   20.8438   31.5620 H           1 MOL       0.0460
     61 H24        43.0929   18.6286   31.9665 H           1 MOL       0.0340
     62 H25        44.6002   18.0392   32.6870 H           1 MOL       0.0340
     63 H26        44.1865   18.9314   29.7771 H           1 MOL       0.0815
     64 H27        44.4962   17.2916   30.3545 H           1 MOL       0.0815
     65 H28        46.4521   18.3490   29.4736 H           1 MOL       0.2013
     66 H29        46.6302   17.9112   31.0618 H           1 MOL       0.2013
     67 H30        46.2542   20.6315   30.0040 H           1 MOL       0.0815
     68 H31        47.7064   19.9529   30.7398 H           1 MOL       0.0815
     69 H32        46.6401   19.7782   32.9212 H           1 MOL       0.0340
     70 H33        46.3872   21.4265   32.3274 H           1 MOL       0.0340
@<TRIPOS>BOND
     1     1     2   2
     2     2     3  am
     3     2    16   1
     4     3     4   1
     5     4     5  ar
     6     4     9  ar
     7     5     6  ar
     8     6     7  ar
     9     6    10   1
    10     7     8  ar
    11     8     9  ar
    12    10    11   1
    13    10    15   1
    14    11    12   1
    15    12    13   1
    16    13    14   1
    17    14    15   1
    18    16    17  ar
    19    16    22  ar
    20    17    18  ar
    21    18    19  ar
    22    19    20   1
    23    19    21  ar
    24    21    22  ar
    25    21    23   1
    26    23    24  ar
    27    23    29  ar
    28    24    25  ar
    29    25    26  ar
    30    26    27  ar
    31    26    30   1
    32    27    28   1
    33    27    29  ar
    34    28    31   1
    35    30    31   2
    36    30    32   1
    37    32    33   1
    38    32    37   1
    39    33    34   1
    40    34    35   1
    41    35    36   1
    42    36    37   1
    43     3    38   1
    44     5    39   1
    45     7    40   1
    46     8    41   1
    47     9    42   1
    48    11    43   1
    49    11    44   1
    50    12    45   1
    51    12    46   1
    52    14    47   1
    53    14    48   1
    54    15    49   1
    55    15    50   1
    56    17    51   1
    57    18    52   1
    58    20    53   1
    59    20    54   1
    60    20    55   1
    61    22    56   1
    62    24    57   1
    63    25    58   1
    64    29    59   1
    65    32    60   1
    66    33    61   1
    67    33    62   1
    68    34    63   1
    69    34    64   1
    70    35    65   1
    71    35    66   1
    72    36    67   1
    73    36    68   1
    74    37    69   1
    75    37    70   1
@<TRIPOS>SUBSTRUCTURE
     1  MOL      2

