@<TRIPOS>MOLECULE
3e93_ligand_086
    70    75
SMALL
GAST_HUCK
****
This file was generated by PARSER (from files_GN.cpp)

@<TRIPOS>ATOM
      1 O25        36.1056   22.6510   37.2533 O.2         1 MOL      -0.3760
      2 C22        37.2906   22.5960   37.5553 C.2         1 MOL       0.2274
      3 N24        37.6959   22.1442   38.7364 N.am        1 MOL      -0.2370
      4 C26        36.9455   21.8098   39.8268 C.ar        1 MOL       0.0536
      5 C27        35.7313   22.4495   40.1711 C.ar        1 MOL      -0.0255
      6 C29        34.9528   22.1132   41.3211 C.ar        1 MOL       0.0259
      7 C32        35.5130   21.0803   42.1328 C.ar        1 MOL      -0.0595
      8 C30        36.7274   20.4540   41.8324 C.ar        1 MOL      -0.0865
      9 C28        37.4481   20.8256   40.6914 C.ar        1 MOL      -0.0544
     10 N31        33.7474   22.7538   41.6335 N.pl3       1 MOL      -0.3075
     11 C33        33.2029   23.9175   40.9214 C.3         1 MOL       0.0499
     12 C35        31.7591   23.6360   40.4351 C.3         1 MOL       0.0673
     13 O37        30.9269   23.2769   41.5458 O.3         1 MOL      -0.3759
     14 C36        31.4196   22.1393   42.2756 C.3         1 MOL       0.0673
     15 C34        32.8763   22.3710   42.7499 C.3         1 MOL       0.0499
     16 C19        38.2185   23.0918   36.6530 C.ar        1 MOL       0.0497
     17 C23        37.9893   24.3397   36.0336 C.ar        1 MOL      -0.0479
     18 C20        38.9708   24.9301   35.2271 C.ar        1 MOL      -0.0536
     19 C18        40.2022   24.2803   34.9767 C.ar        1 MOL      -0.0326
     20 C21        41.2159   25.0117   34.1701 C.3         1 MOL      -0.0276
     21 C15        40.4306   22.9850   35.5329 C.ar        1 MOL      -0.0123
     22 C17        39.4358   22.4230   36.3768 C.ar        1 MOL      -0.0399
     23 C12        41.6336   22.2432   35.3057 C.ar        1 MOL      -0.0269
     24 C9         42.0437   21.9086   33.9885 C.ar        1 MOL      -0.0647
     25 C4         43.2443   21.2018   33.7512 C.ar        1 MOL      -0.0614
     26 C1         44.0249   20.8087   34.8505 C.ar        1 MOL       0.0282
     27 C3         43.6040   21.0767   36.1454 C.ar        1 MOL       0.1528
     28 O8         44.4951   20.5347   36.9999 O.3         1 MOL      -0.1790
     29 C7         42.4236   21.7958   36.3973 C.ar        1 MOL      -0.0179
     30 C2         45.2301   20.1151   34.9801 C.2         1 MOL       0.0534
     31 N6         45.4457   19.9641   36.3027 N.2         1 MOL      -0.1500
     32 C5         46.1095   19.6166   33.8876 C.3         1 MOL       0.0120
     33 C10        45.7573   18.1539   33.4863 C.3         1 MOL       0.0001
     34 C13        46.3402   17.1083   34.4695 C.3         1 MOL      -0.0317
     35 N16        47.7993   17.2951   34.6249 N.4         1 MOL       0.2272
     36 C14        48.1922   18.6394   35.1082 C.3         1 MOL      -0.0317
     37 C11        47.6341   19.7637   34.1941 C.3         1 MOL       0.0001
     38 H1         38.6517   22.0393   38.8450 H           1 MOL       0.2248
     39 H2         35.4364   23.1954   39.5557 H           1 MOL       0.0391
     40 H3         35.0823   20.7723   42.9982 H           1 MOL       0.0393
     41 H4         37.0974   19.7325   42.4488 H           1 MOL       0.0546
     42 H5         38.3402   20.3661   40.4863 H           1 MOL       0.0398
     43 H6         33.7542   24.2594   40.0464 H           1 MOL       0.0536
     44 H7         33.1882   24.7737   41.6059 H           1 MOL       0.0536
     45 H8         31.7565   22.8424   39.6844 H           1 MOL       0.0579
     46 H9         31.3488   24.5363   39.9799 H           1 MOL       0.0579
     47 H10        31.3753   21.2401   41.6540 H           1 MOL       0.0579
     48 H11        30.7720   21.9846   43.1373 H           1 MOL       0.0579
     49 H12        32.8925   23.1732   43.4993 H           1 MOL       0.0536
     50 H13        33.1467   21.4529   43.2658 H           1 MOL       0.0536
     51 H14        37.1258   24.8653   36.2096 H           1 MOL       0.0652
     52 H15        38.7850   25.8592   34.8367 H           1 MOL       0.0569
     53 H16        40.9750   26.0707   34.0569 H           1 MOL       0.0406
     54 H17        41.2617   24.5833   33.1710 H           1 MOL       0.0406
     55 H18        42.1983   24.9469   34.6414 H           1 MOL       0.0406
     56 H19        39.5929   21.5000   36.7913 H           1 MOL       0.0658
     57 H20        41.4617   22.1583   33.1864 H           1 MOL       0.0538
     58 H21        43.5262   20.9708   32.7961 H           1 MOL       0.0598
     59 H22        42.1527   21.9867   37.3625 H           1 MOL       0.0568
     60 H23        45.9119   20.2424   33.0108 H           1 MOL       0.0460
     61 H24        46.1711   17.9591   32.4941 H           1 MOL       0.0340
     62 H25        44.6732   18.0284   33.4152 H           1 MOL       0.0340
     63 H26        46.1626   16.1061   34.0747 H           1 MOL       0.0815
     64 H27        45.8495   17.1798   35.4420 H           1 MOL       0.0815
     65 H28        48.2313   17.1336   33.7119 H           1 MOL       0.2013
     66 H29        48.1538   16.5927   35.2797 H           1 MOL       0.2013
     67 H30        49.2828   18.6962   35.1238 H           1 MOL       0.0815
     68 H31        47.8418   18.7702   36.1342 H           1 MOL       0.0815
     69 H32        47.8388   20.7370   34.6479 H           1 MOL       0.0340
     70 H33        48.1827   19.7259   33.2477 H           1 MOL       0.0340
@<TRIPOS>BOND
     1     1     2   2
     2     2     3  am
     3     2    16   1
     4     3     4   1
     5     4     5  ar
     6     4     9  ar
     7     5     6  ar
     8     6     7  ar
     9     6    10   1
    10     7     8  ar
    11     8     9  ar
    12    10    11   1
    13    10    15   1
    14    11    12   1
    15    12    13   1
    16    13    14   1
    17    14    15   1
    18    16    17  ar
    19    16    22  ar
    20    17    18  ar
    21    18    19  ar
    22    19    20   1
    23    19    21  ar
    24    21    22  ar
    25    21    23   1
    26    23    24  ar
    27    23    29  ar
    28    24    25  ar
    29    25    26  ar
    30    26    27  ar
    31    26    30   1
    32    27    28   1
    33    27    29  ar
    34    28    31   1
    35    30    31   2
    36    30    32   1
    37    32    33   1
    38    32    37   1
    39    33    34   1
    40    34    35   1
    41    35    36   1
    42    36    37   1
    43     3    38   1
    44     5    39   1
    45     7    40   1
    46     8    41   1
    47     9    42   1
    48    11    43   1
    49    11    44   1
    50    12    45   1
    51    12    46   1
    52    14    47   1
    53    14    48   1
    54    15    49   1
    55    15    50   1
    56    17    51   1
    57    18    52   1
    58    20    53   1
    59    20    54   1
    60    20    55   1
    61    22    56   1
    62    24    57   1
    63    25    58   1
    64    29    59   1
    65    32    60   1
    66    33    61   1
    67    33    62   1
    68    34    63   1
    69    34    64   1
    70    35    65   1
    71    35    66   1
    72    36    67   1
    73    36    68   1
    74    37    69   1
    75    37    70   1
@<TRIPOS>SUBSTRUCTURE
     1  MOL      2

