@<TRIPOS>MOLECULE
3e93_ligand_006
    70    75
SMALL
GAST_HUCK
****
This file was generated by PARSER (from files_GN.cpp)

@<TRIPOS>ATOM
      1 O25        35.2411   15.7996   42.2065 O.2         1 MOL      -0.3760
      2 C22        34.4693   15.4810   41.3070 C.2         1 MOL       0.2274
      3 N24        33.1758   15.2903   41.5647 N.am        1 MOL      -0.2370
      4 C26        32.5166   15.4381   42.7574 C.ar        1 MOL       0.0536
      5 C27        32.8221   16.4429   43.7080 C.ar        1 MOL      -0.0255
      6 C29        32.2225   16.4724   44.9963 C.ar        1 MOL       0.0259
      7 C32        31.2077   15.5148   45.2560 C.ar        1 MOL      -0.0595
      8 C30        30.8088   14.5831   44.2824 C.ar        1 MOL      -0.0865
      9 C28        31.4702   14.5370   43.0460 C.ar        1 MOL      -0.0544
     10 N31        32.6436   17.3324   45.9787 N.pl3       1 MOL      -0.3075
     11 C33        32.9061   18.7306   45.6744 C.3         1 MOL       0.0499
     12 C35        33.1765   19.6097   46.9206 C.3         1 MOL       0.0673
     13 O37        34.1505   18.9685   47.7548 O.3         1 MOL      -0.3759
     14 C36        33.6611   17.7341   48.2918 C.3         1 MOL       0.0673
     15 C34        33.1844   16.7437   47.1947 C.3         1 MOL       0.0499
     16 C19        34.9941   15.3401   40.0177 C.ar        1 MOL       0.0497
     17 C23        34.4529   14.4241   39.0818 C.ar        1 MOL      -0.0479
     18 C20        34.9872   14.3116   37.7868 C.ar        1 MOL      -0.0536
     19 C18        36.0799   15.1064   37.3750 C.ar        1 MOL      -0.0326
     20 C21        36.5801   14.9963   35.9776 C.3         1 MOL      -0.0276
     21 C15        36.6393   16.0292   38.3038 C.ar        1 MOL      -0.0123
     22 C17        36.0961   16.1244   39.6045 C.ar        1 MOL      -0.0399
     23 C12        37.7074   16.9026   37.9742 C.ar        1 MOL      -0.0269
     24 C9         37.4704   18.2986   37.8681 C.ar        1 MOL      -0.0647
     25 C4         38.5254   19.1899   37.5943 C.ar        1 MOL      -0.0614
     26 C1         39.8257   18.6714   37.4361 C.ar        1 MOL       0.0282
     27 C3         40.0638   17.3074   37.5453 C.ar        1 MOL       0.1528
     28 O8         41.3866   17.0958   37.3871 O.3         1 MOL      -0.1790
     29 C7         39.0251   16.4038   37.8150 C.ar        1 MOL      -0.0179
     30 C2         41.0667   19.2524   37.2057 C.2         1 MOL       0.0534
     31 N6         41.9727   18.2511   37.1918 N.2         1 MOL      -0.1500
     32 C5         41.3655   20.7061   37.0976 C.3         1 MOL       0.0120
     33 C10        42.3233   21.0726   35.9225 C.3         1 MOL       0.0001
     34 C13        43.8196   20.8474   36.2540 C.3         1 MOL      -0.0317
     35 N16        44.1732   21.4983   37.5346 N.4         1 MOL       0.2272
     36 C14        43.3843   21.0131   38.6890 C.3         1 MOL      -0.0317
     37 C11        41.8741   21.2710   38.4569 C.3         1 MOL       0.0001
     38 H1         32.6377   14.9489   40.8342 H           1 MOL       0.2248
     39 H2         33.5380   17.1289   43.4683 H           1 MOL       0.0391
     40 H3         30.7061   15.5259   46.1449 H           1 MOL       0.0393
     41 H4         30.0490   13.9279   44.4844 H           1 MOL       0.0546
     42 H5         31.1973   13.8289   42.3606 H           1 MOL       0.0398
     43 H6         32.0477   19.1593   45.1447 H           1 MOL       0.0536
     44 H7         33.7830   18.8082   45.0322 H           1 MOL       0.0536
     45 H8         32.2460   19.7876   47.4675 H           1 MOL       0.0579
     46 H9         33.5779   20.5789   46.6132 H           1 MOL       0.0579
     47 H10        32.8450   17.9373   48.9881 H           1 MOL       0.0579
     48 H11        34.4754   17.2794   48.8583 H           1 MOL       0.0579
     49 H12        34.0413   16.1267   46.9070 H           1 MOL       0.0536
     50 H13        32.4529   16.0862   47.6614 H           1 MOL       0.0536
     51 H14        33.6818   13.8043   39.3469 H           1 MOL       0.0652
     52 H15        34.5692   13.6355   37.1427 H           1 MOL       0.0569
     53 H16        35.9989   14.2919   35.3808 H           1 MOL       0.0406
     54 H17        37.6159   14.6569   35.9775 H           1 MOL       0.0406
     55 H18        36.5239   15.9724   35.4929 H           1 MOL       0.0406
     56 H19        36.5069   16.7957   40.2584 H           1 MOL       0.0658
     57 H20        36.5286   18.6767   38.0069 H           1 MOL       0.0538
     58 H21        38.3448   20.1931   37.5335 H           1 MOL       0.0598
     59 H22        39.2331   15.4080   37.9191 H           1 MOL       0.0568
     60 H23        40.4212   21.2151   36.8850 H           1 MOL       0.0460
     61 H24        42.1969   22.1345   35.6872 H           1 MOL       0.0340
     62 H25        42.0647   20.5030   35.0259 H           1 MOL       0.0340
     63 H26        44.4365   21.2764   35.4601 H           1 MOL       0.0815
     64 H27        44.0434   19.7784   36.3028 H           1 MOL       0.0815
     65 H28        44.0074   22.5028   37.4482 H           1 MOL       0.2013
     66 H29        45.1642   21.3458   37.7137 H           1 MOL       0.2013
     67 H30        43.7039   21.5519   39.5821 H           1 MOL       0.0815
     68 H31        43.5697   19.9483   38.8533 H           1 MOL       0.0815
     69 H32        41.3005   20.8498   39.2885 H           1 MOL       0.0340
     70 H33        41.7069   22.3502   38.4671 H           1 MOL       0.0340
@<TRIPOS>BOND
     1     1     2   2
     2     2     3  am
     3     2    16   1
     4     3     4   1
     5     4     5  ar
     6     4     9  ar
     7     5     6  ar
     8     6     7  ar
     9     6    10   1
    10     7     8  ar
    11     8     9  ar
    12    10    11   1
    13    10    15   1
    14    11    12   1
    15    12    13   1
    16    13    14   1
    17    14    15   1
    18    16    17  ar
    19    16    22  ar
    20    17    18  ar
    21    18    19  ar
    22    19    20   1
    23    19    21  ar
    24    21    22  ar
    25    21    23   1
    26    23    24  ar
    27    23    29  ar
    28    24    25  ar
    29    25    26  ar
    30    26    27  ar
    31    26    30   1
    32    27    28   1
    33    27    29  ar
    34    28    31   1
    35    30    31   2
    36    30    32   1
    37    32    33   1
    38    32    37   1
    39    33    34   1
    40    34    35   1
    41    35    36   1
    42    36    37   1
    43     3    38   1
    44     5    39   1
    45     7    40   1
    46     8    41   1
    47     9    42   1
    48    11    43   1
    49    11    44   1
    50    12    45   1
    51    12    46   1
    52    14    47   1
    53    14    48   1
    54    15    49   1
    55    15    50   1
    56    17    51   1
    57    18    52   1
    58    20    53   1
    59    20    54   1
    60    20    55   1
    61    22    56   1
    62    24    57   1
    63    25    58   1
    64    29    59   1
    65    32    60   1
    66    33    61   1
    67    33    62   1
    68    34    63   1
    69    34    64   1
    70    35    65   1
    71    35    66   1
    72    36    67   1
    73    36    68   1
    74    37    69   1
    75    37    70   1
@<TRIPOS>SUBSTRUCTURE
     1  MOL      2

