@<TRIPOS>MOLECULE
3e93_ligand_060
    70    75
SMALL
GAST_HUCK
****
This file was generated by PARSER (from files_GN.cpp)

@<TRIPOS>ATOM
      1 O25        43.4136   20.9407   35.4769 O.2         1 MOL      -0.3760
      2 C22        42.4165   21.1547   36.1611 C.2         1 MOL       0.2274
      3 N24        41.9767   20.2458   37.0382 N.am        1 MOL      -0.2370
      4 C26        42.5009   19.0045   37.2503 C.ar        1 MOL       0.0536
      5 C27        43.8879   18.7399   37.3527 C.ar        1 MOL      -0.0255
      6 C29        44.4149   17.4275   37.4041 C.ar        1 MOL       0.0259
      7 C32        43.4816   16.3581   37.3894 C.ar        1 MOL      -0.0595
      8 C30        42.0941   16.5958   37.3519 C.ar        1 MOL      -0.0865
      9 C28        41.6073   17.9127   37.2971 C.ar        1 MOL      -0.0544
     10 N31        45.7723   17.1947   37.4309 N.pl3       1 MOL      -0.3075
     11 C33        46.3965   16.1299   36.6657 C.3         1 MOL       0.0499
     12 C35        47.4201   16.7471   35.6755 C.3         1 MOL       0.0673
     13 O37        48.3396   17.6339   36.3461 O.3         1 MOL      -0.3759
     14 C36        47.7013   18.6687   37.1229 C.3         1 MOL       0.0673
     15 C34        46.7065   18.0552   38.1325 C.3         1 MOL       0.0499
     16 C19        41.6332   22.2544   35.8520 C.ar        1 MOL       0.0497
     17 C23        41.4495   22.6550   34.5102 C.ar        1 MOL      -0.0479
     18 C20        40.6023   23.7205   34.1891 C.ar        1 MOL      -0.0536
     19 C18        39.8992   24.4210   35.1983 C.ar        1 MOL      -0.0326
     20 C21        38.9233   25.4304   34.7216 C.3         1 MOL      -0.0276
     21 C15        40.1511   24.1103   36.5700 C.ar        1 MOL      -0.0123
     22 C17        40.9877   23.0059   36.8605 C.ar        1 MOL      -0.0399
     23 C12        39.6844   24.9274   37.6617 C.ar        1 MOL      -0.0269
     24 C9         39.7083   26.3478   37.5685 C.ar        1 MOL      -0.0647
     25 C4         39.3473   27.1602   38.6543 C.ar        1 MOL      -0.0614
     26 C1         39.0650   26.5770   39.9239 C.ar        1 MOL       0.0282
     27 C3         39.0402   25.1856   40.0114 C.ar        1 MOL       0.1528
     28 O8         38.7743   24.8189   41.2885 O.3         1 MOL      -0.1790
     29 C7         39.3087   24.3496   38.9136 C.ar        1 MOL      -0.0179
     30 C2         38.8178   27.0311   41.2396 C.2         1 MOL       0.0534
     31 N6         38.6406   25.9161   41.9875 N.2         1 MOL      -0.1500
     32 C5         38.7354   28.3811   41.8806 C.3         1 MOL       0.0120
     33 C10        39.0832   29.6081   40.9820 C.3         1 MOL       0.0001
     34 C13        40.6161   29.6689   40.6789 C.3         1 MOL      -0.0317
     35 N16        41.4303   29.6299   41.9194 N.4         1 MOL       0.2272
     36 C14        41.1192   28.5039   42.8306 C.3         1 MOL      -0.0317
     37 C11        39.6100   28.4832   43.1794 C.3         1 MOL       0.0001
     38 H1         41.1055   20.4151   37.4203 H           1 MOL       0.2248
     39 H2         44.5233   19.5403   37.3287 H           1 MOL       0.0391
     40 H3         43.7991   15.3945   37.4491 H           1 MOL       0.0393
     41 H4         41.4418   15.8102   37.3656 H           1 MOL       0.0546
     42 H5         40.5954   18.0639   37.2420 H           1 MOL       0.0398
     43 H6         45.6880   15.5422   36.0754 H           1 MOL       0.0536
     44 H7         46.9056   15.4376   37.3437 H           1 MOL       0.0536
     45 H8         46.8932   17.2912   34.8903 H           1 MOL       0.0579
     46 H9         47.9953   15.9478   35.2033 H           1 MOL       0.0579
     47 H10        47.1847   19.3679   36.4600 H           1 MOL       0.0579
     48 H11        48.4771   19.2229   37.6580 H           1 MOL       0.0579
     49 H12        47.2638   17.4537   38.8506 H           1 MOL       0.0536
     50 H13        46.2335   18.8468   38.7118 H           1 MOL       0.0536
     51 H14        41.8940   22.1440   33.7531 H           1 MOL       0.0652
     52 H15        40.4779   23.9676   33.2052 H           1 MOL       0.0569
     53 H16        38.3871   25.0633   33.8317 H           1 MOL       0.0406
     54 H17        39.4491   26.3517   34.4682 H           1 MOL       0.0406
     55 H18        38.1600   25.6516   35.4750 H           1 MOL       0.0406
     56 H19        41.1827   22.7677   37.8399 H           1 MOL       0.0658
     57 H20        40.0739   26.8113   36.7256 H           1 MOL       0.0538
     58 H21        39.3538   28.1685   38.5121 H           1 MOL       0.0598
     59 H22        39.2660   23.3222   39.0378 H           1 MOL       0.0568
     60 H23        37.6886   28.4961   42.1925 H           1 MOL       0.0460
     61 H24        38.7961   30.5323   41.5063 H           1 MOL       0.0340
     62 H25        38.5035   29.5740   40.0569 H           1 MOL       0.0340
     63 H26        40.8381   30.5972   40.1457 H           1 MOL       0.0815
     64 H27        40.9491   28.8348   40.0675 H           1 MOL       0.0815
     65 H28        41.2927   30.5042   42.4245 H           1 MOL       0.2013
     66 H29        42.4133   29.5502   41.6383 H           1 MOL       0.2013
     67 H30        41.7014   28.6217   43.7452 H           1 MOL       0.0815
     68 H31        41.4056   27.5543   42.3693 H           1 MOL       0.0815
     69 H32        39.3961   27.6572   43.8650 H           1 MOL       0.0340
     70 H33        39.3600   29.4057   43.7051 H           1 MOL       0.0340
@<TRIPOS>BOND
     1     1     2   2
     2     2     3  am
     3     2    16   1
     4     3     4   1
     5     4     5  ar
     6     4     9  ar
     7     5     6  ar
     8     6     7  ar
     9     6    10   1
    10     7     8  ar
    11     8     9  ar
    12    10    11   1
    13    10    15   1
    14    11    12   1
    15    12    13   1
    16    13    14   1
    17    14    15   1
    18    16    17  ar
    19    16    22  ar
    20    17    18  ar
    21    18    19  ar
    22    19    20   1
    23    19    21  ar
    24    21    22  ar
    25    21    23   1
    26    23    24  ar
    27    23    29  ar
    28    24    25  ar
    29    25    26  ar
    30    26    27  ar
    31    26    30   1
    32    27    28   1
    33    27    29  ar
    34    28    31   1
    35    30    31   2
    36    30    32   1
    37    32    33   1
    38    32    37   1
    39    33    34   1
    40    34    35   1
    41    35    36   1
    42    36    37   1
    43     3    38   1
    44     5    39   1
    45     7    40   1
    46     8    41   1
    47     9    42   1
    48    11    43   1
    49    11    44   1
    50    12    45   1
    51    12    46   1
    52    14    47   1
    53    14    48   1
    54    15    49   1
    55    15    50   1
    56    17    51   1
    57    18    52   1
    58    20    53   1
    59    20    54   1
    60    20    55   1
    61    22    56   1
    62    24    57   1
    63    25    58   1
    64    29    59   1
    65    32    60   1
    66    33    61   1
    67    33    62   1
    68    34    63   1
    69    34    64   1
    70    35    65   1
    71    35    66   1
    72    36    67   1
    73    36    68   1
    74    37    69   1
    75    37    70   1
@<TRIPOS>SUBSTRUCTURE
     1  MOL      2

