@<TRIPOS>MOLECULE
3e93_ligand_084
    70    75
SMALL
GAST_HUCK
****
This file was generated by PARSER (from files_GN.cpp)

@<TRIPOS>ATOM
      1 O25        37.4022   16.6821   37.2126 O.2         1 MOL      -0.3760
      2 C22        38.1840   17.2922   37.9324 C.2         1 MOL       0.2274
      3 N24        39.5029   17.1208   37.8673 N.am        1 MOL      -0.2370
      4 C26        40.2548   16.1768   37.2030 C.ar        1 MOL       0.0536
      5 C27        41.6581   16.3742   37.1787 C.ar        1 MOL      -0.0255
      6 C29        42.5785   15.4361   36.6224 C.ar        1 MOL       0.0259
      7 C32        41.9974   14.2688   36.0597 C.ar        1 MOL      -0.0595
      8 C30        40.6117   14.0502   36.0482 C.ar        1 MOL      -0.0865
      9 C28        39.7465   14.9920   36.6195 C.ar        1 MOL      -0.0544
     10 N31        43.9502   15.6416   36.6373 N.pl3       1 MOL      -0.3075
     11 C33        44.8787   14.9742   35.7300 C.3         1 MOL       0.0499
     12 C35        45.8931   14.1451   36.5510 C.3         1 MOL       0.0673
     13 O37        46.5969   15.0045   37.4690 O.3         1 MOL      -0.3759
     14 C36        45.7253   15.7405   38.3518 C.3         1 MOL       0.0673
     15 C34        44.6296   16.5256   37.5793 C.3         1 MOL       0.0499
     16 C19        37.6329   18.1989   38.8277 C.ar        1 MOL       0.0497
     17 C23        36.6170   17.7854   39.7138 C.ar        1 MOL      -0.0479
     18 C20        36.0051   18.7041   40.5838 C.ar        1 MOL      -0.0536
     19 C18        36.3565   20.0752   40.5727 C.ar        1 MOL      -0.0326
     20 C21        35.6028   21.0142   41.4527 C.3         1 MOL      -0.0276
     21 C15        37.3687   20.5141   39.6685 C.ar        1 MOL      -0.0123
     22 C17        38.0138   19.5592   38.8345 C.ar        1 MOL      -0.0399
     23 C12        37.6678   21.8938   39.4599 C.ar        1 MOL      -0.0269
     24 C9         37.4119   22.4736   38.1919 C.ar        1 MOL      -0.0647
     25 C4         37.7075   23.8274   37.9334 C.ar        1 MOL      -0.0614
     26 C1         38.2340   24.6410   38.9619 C.ar        1 MOL       0.0282
     27 C3         38.4443   24.0750   40.2181 C.ar        1 MOL       0.1528
     28 O8         38.8971   25.0251   41.0584 O.3         1 MOL      -0.1790
     29 C7         38.1979   22.7172   40.4848 C.ar        1 MOL      -0.0179
     30 C2         38.6360   25.9779   39.0938 C.2         1 MOL       0.0534
     31 N6         38.9960   26.1388   40.3865 N.2         1 MOL      -0.1500
     32 C5         38.6704   27.1285   38.1266 C.3         1 MOL       0.0120
     33 C10        38.9249   26.7230   36.6402 C.3         1 MOL       0.0001
     34 C13        39.0893   27.9423   35.7029 C.3         1 MOL      -0.0317
     35 N16        40.1294   28.8663   36.1861 N.4         1 MOL       0.2272
     36 C14        39.8865   29.3624   37.5565 C.3         1 MOL      -0.0317
     37 C11        39.7385   28.1934   38.5588 C.3         1 MOL       0.0001
     38 H1         40.0165   17.7360   38.4201 H           1 MOL       0.2248
     39 H2         41.9996   17.2596   37.5524 H           1 MOL       0.0391
     40 H3         42.5724   13.5095   35.6964 H           1 MOL       0.0393
     41 H4         40.2317   13.1841   35.6535 H           1 MOL       0.0546
     42 H5         38.7524   14.7735   36.6297 H           1 MOL       0.0398
     43 H6         45.4248   15.7341   35.1619 H           1 MOL       0.0536
     44 H7         44.4257   14.3262   34.9840 H           1 MOL       0.0536
     45 H8         46.6190   13.6806   35.8801 H           1 MOL       0.0579
     46 H9         45.3752   13.3495   37.0935 H           1 MOL       0.0579
     47 H10        46.3359   16.4380   38.9287 H           1 MOL       0.0579
     48 H11        45.2510   15.0494   39.0530 H           1 MOL       0.0579
     49 H12        43.9861   16.9642   38.3420 H           1 MOL       0.0536
     50 H13        45.0912   17.3523   37.0288 H           1 MOL       0.0536
     51 H14        36.3117   16.8074   39.7333 H           1 MOL       0.0652
     52 H15        35.2676   18.3595   41.2057 H           1 MOL       0.0569
     53 H16        34.7539   20.5345   41.9448 H           1 MOL       0.0406
     54 H17        35.2091   21.8460   40.8674 H           1 MOL       0.0406
     55 H18        36.2560   21.4115   42.2309 H           1 MOL       0.0406
     56 H19        38.7333   19.8713   38.1729 H           1 MOL       0.0658
     57 H20        36.9993   21.9180   37.4383 H           1 MOL       0.0538
     58 H21        37.5137   24.1908   37.0029 H           1 MOL       0.0598
     59 H22        38.4137   22.3446   41.4125 H           1 MOL       0.0568
     60 H23        37.6852   27.5999   38.1831 H           1 MOL       0.0460
     61 H24        38.0825   26.1564   36.2469 H           1 MOL       0.0340
     62 H25        39.8231   26.0970   36.5843 H           1 MOL       0.0340
     63 H26        38.1383   28.4730   35.6132 H           1 MOL       0.0815
     64 H27        39.3820   27.5937   34.7115 H           1 MOL       0.0815
     65 H28        40.1621   29.6690   35.5544 H           1 MOL       0.2013
     66 H29        41.0278   28.3746   36.1380 H           1 MOL       0.2013
     67 H30        38.9860   29.9804   37.5699 H           1 MOL       0.0815
     68 H31        40.7248   29.9918   37.8557 H           1 MOL       0.0815
     69 H32        40.7116   27.7068   38.6622 H           1 MOL       0.0340
     70 H33        39.4694   28.6186   39.5294 H           1 MOL       0.0340
@<TRIPOS>BOND
     1     1     2   2
     2     2     3  am
     3     2    16   1
     4     3     4   1
     5     4     5  ar
     6     4     9  ar
     7     5     6  ar
     8     6     7  ar
     9     6    10   1
    10     7     8  ar
    11     8     9  ar
    12    10    11   1
    13    10    15   1
    14    11    12   1
    15    12    13   1
    16    13    14   1
    17    14    15   1
    18    16    17  ar
    19    16    22  ar
    20    17    18  ar
    21    18    19  ar
    22    19    20   1
    23    19    21  ar
    24    21    22  ar
    25    21    23   1
    26    23    24  ar
    27    23    29  ar
    28    24    25  ar
    29    25    26  ar
    30    26    27  ar
    31    26    30   1
    32    27    28   1
    33    27    29  ar
    34    28    31   1
    35    30    31   2
    36    30    32   1
    37    32    33   1
    38    32    37   1
    39    33    34   1
    40    34    35   1
    41    35    36   1
    42    36    37   1
    43     3    38   1
    44     5    39   1
    45     7    40   1
    46     8    41   1
    47     9    42   1
    48    11    43   1
    49    11    44   1
    50    12    45   1
    51    12    46   1
    52    14    47   1
    53    14    48   1
    54    15    49   1
    55    15    50   1
    56    17    51   1
    57    18    52   1
    58    20    53   1
    59    20    54   1
    60    20    55   1
    61    22    56   1
    62    24    57   1
    63    25    58   1
    64    29    59   1
    65    32    60   1
    66    33    61   1
    67    33    62   1
    68    34    63   1
    69    34    64   1
    70    35    65   1
    71    35    66   1
    72    36    67   1
    73    36    68   1
    74    37    69   1
    75    37    70   1
@<TRIPOS>SUBSTRUCTURE
     1  MOL      2

