@<TRIPOS>MOLECULE
3e93_ligand_043
    70    75
SMALL
GAST_HUCK
****
This file was generated by PARSER (from files_GN.cpp)

@<TRIPOS>ATOM
      1 O25        38.2419   16.5731   43.7240 O.2         1 MOL      -0.3760
      2 C22        37.1919   16.5348   43.0853 C.2         1 MOL       0.2274
      3 N24        35.9876   16.6506   43.6345 N.am        1 MOL      -0.2370
      4 C26        35.6018   16.9252   44.9200 C.ar        1 MOL       0.0536
      5 C27        34.2373   16.7317   45.2384 C.ar        1 MOL      -0.0255
      6 C29        33.7175   16.9333   46.5471 C.ar        1 MOL       0.0259
      7 C32        34.6302   17.3751   47.5395 C.ar        1 MOL      -0.0595
      8 C30        35.9727   17.6360   47.2329 C.ar        1 MOL      -0.0865
      9 C28        36.4539   17.4215   45.9337 C.ar        1 MOL      -0.0544
     10 N31        32.3929   16.7072   46.8411 N.pl3       1 MOL      -0.3075
     11 C33        31.3320   16.8641   45.8565 C.3         1 MOL       0.0499
     12 C35        30.3028   17.8977   46.3887 C.3         1 MOL       0.0673
     13 O37        29.8426   17.5476   47.7108 O.3         1 MOL      -0.3759
     14 C36        30.9131   17.3967   48.6713 C.3         1 MOL       0.0673
     15 C34        31.9335   16.3444   48.1716 C.3         1 MOL       0.0499
     16 C19        37.2827   16.3868   41.7155 C.ar        1 MOL       0.0497
     17 C23        36.9224   15.1724   41.0901 C.ar        1 MOL      -0.0479
     18 C20        36.9622   15.0564   39.6955 C.ar        1 MOL      -0.0536
     19 C18        37.3274   16.1491   38.8723 C.ar        1 MOL      -0.0326
     20 C21        37.2797   15.9691   37.3960 C.3         1 MOL      -0.0276
     21 C15        37.6763   17.3894   39.4948 C.ar        1 MOL      -0.0123
     22 C17        37.6798   17.4732   40.9060 C.ar        1 MOL      -0.0399
     23 C12        37.9450   18.5871   38.7634 C.ar        1 MOL      -0.0269
     24 C9         38.9493   18.6513   37.7601 C.ar        1 MOL      -0.0647
     25 C4         39.2038   19.8490   37.0489 C.ar        1 MOL      -0.0614
     26 C1         38.4728   21.0087   37.3766 C.ar        1 MOL       0.0282
     27 C3         37.4956   20.9588   38.3656 C.ar        1 MOL       0.1528
     28 O8         36.9393   22.1832   38.4809 O.3         1 MOL      -0.1790
     29 C7         37.2134   19.7705   39.0604 C.ar        1 MOL      -0.0179
     30 C2         38.4657   22.3277   36.9140 C.2         1 MOL       0.0534
     31 N6         37.5173   22.9801   37.6201 N.2         1 MOL      -0.1500
     32 C5         39.2710   22.9209   35.8114 C.3         1 MOL       0.0120
     33 C10        40.7978   22.6287   35.9589 C.3         1 MOL       0.0001
     34 C13        41.5704   23.1999   34.7422 C.3         1 MOL      -0.0317
     35 N16        41.3422   24.6528   34.5832 N.4         1 MOL       0.2272
     36 C14        39.9163   25.0513   34.4944 C.3         1 MOL      -0.0317
     37 C11        39.0620   24.4619   35.6484 C.3         1 MOL       0.0001
     38 H1         35.2508   16.5347   43.0110 H           1 MOL       0.2248
     39 H2         33.6145   16.3720   44.5118 H           1 MOL       0.0391
     40 H3         34.3135   17.5747   48.4928 H           1 MOL       0.0393
     41 H4         36.6014   17.9931   47.9592 H           1 MOL       0.0546
     42 H5         37.4256   17.6535   45.7431 H           1 MOL       0.0398
     43 H6         30.8396   15.9000   45.7012 H           1 MOL       0.0536
     44 H7         31.6829   17.2227   44.8865 H           1 MOL       0.0536
     45 H8         29.4416   17.9250   45.7205 H           1 MOL       0.0579
     46 H9         30.7510   18.8967   46.4039 H           1 MOL       0.0579
     47 H10        30.4833   17.0640   49.6188 H           1 MOL       0.0579
     48 H11        31.4101   18.3599   48.8402 H           1 MOL       0.0579
     49 H12        32.7343   16.2264   48.9075 H           1 MOL       0.0536
     50 H13        31.4316   15.3743   48.1115 H           1 MOL       0.0536
     51 H14        36.6348   14.3618   41.6527 H           1 MOL       0.0652
     52 H15        36.7002   14.1590   39.2801 H           1 MOL       0.0569
     53 H16        36.8139   15.0186   37.1092 H           1 MOL       0.0406
     54 H17        38.2970   15.9957   36.9889 H           1 MOL       0.0406
     55 H18        36.6913   16.7744   36.9455 H           1 MOL       0.0406
     56 H19        37.9282   18.3578   41.3630 H           1 MOL       0.0658
     57 H20        39.5089   17.8201   37.5350 H           1 MOL       0.0538
     58 H21        39.9246   19.8734   36.3225 H           1 MOL       0.0598
     59 H22        36.4854   19.7835   39.7781 H           1 MOL       0.0568
     60 H23        38.9184   22.4448   34.8911 H           1 MOL       0.0460
     61 H24        40.9841   21.5491   36.0138 H           1 MOL       0.0340
     62 H25        41.1771   23.0935   36.8783 H           1 MOL       0.0340
     63 H26        41.2631   22.6822   33.8283 H           1 MOL       0.0815
     64 H27        42.6406   23.0302   34.8790 H           1 MOL       0.0815
     65 H28        41.8148   24.9309   33.7222 H           1 MOL       0.2013
     66 H29        41.7747   25.1406   35.3743 H           1 MOL       0.2013
     67 H30        39.5115   24.7276   33.5321 H           1 MOL       0.0815
     68 H31        39.8674   26.1421   34.5323 H           1 MOL       0.0815
     69 H32        39.3389   24.9670   36.5800 H           1 MOL       0.0340
     70 H33        38.0066   24.6753   35.4486 H           1 MOL       0.0340
@<TRIPOS>BOND
     1     1     2   2
     2     2     3  am
     3     2    16   1
     4     3     4   1
     5     4     5  ar
     6     4     9  ar
     7     5     6  ar
     8     6     7  ar
     9     6    10   1
    10     7     8  ar
    11     8     9  ar
    12    10    11   1
    13    10    15   1
    14    11    12   1
    15    12    13   1
    16    13    14   1
    17    14    15   1
    18    16    17  ar
    19    16    22  ar
    20    17    18  ar
    21    18    19  ar
    22    19    20   1
    23    19    21  ar
    24    21    22  ar
    25    21    23   1
    26    23    24  ar
    27    23    29  ar
    28    24    25  ar
    29    25    26  ar
    30    26    27  ar
    31    26    30   1
    32    27    28   1
    33    27    29  ar
    34    28    31   1
    35    30    31   2
    36    30    32   1
    37    32    33   1
    38    32    37   1
    39    33    34   1
    40    34    35   1
    41    35    36   1
    42    36    37   1
    43     3    38   1
    44     5    39   1
    45     7    40   1
    46     8    41   1
    47     9    42   1
    48    11    43   1
    49    11    44   1
    50    12    45   1
    51    12    46   1
    52    14    47   1
    53    14    48   1
    54    15    49   1
    55    15    50   1
    56    17    51   1
    57    18    52   1
    58    20    53   1
    59    20    54   1
    60    20    55   1
    61    22    56   1
    62    24    57   1
    63    25    58   1
    64    29    59   1
    65    32    60   1
    66    33    61   1
    67    33    62   1
    68    34    63   1
    69    34    64   1
    70    35    65   1
    71    35    66   1
    72    36    67   1
    73    36    68   1
    74    37    69   1
    75    37    70   1
@<TRIPOS>SUBSTRUCTURE
     1  MOL      2

