@<TRIPOS>MOLECULE
3e93_ligand_007
    70    75
SMALL
GAST_HUCK
****
This file was generated by PARSER (from files_GN.cpp)

@<TRIPOS>ATOM
      1 O25        34.8098   15.8587   42.3554 O.2         1 MOL      -0.3760
      2 C22        35.4798   16.6188   41.6600 C.2         1 MOL       0.2274
      3 N24        35.5618   17.9224   41.9097 N.am        1 MOL      -0.2370
      4 C26        35.1013   18.6561   42.9612 C.ar        1 MOL       0.0536
      5 C27        35.0663   18.2015   44.3012 C.ar        1 MOL      -0.0255
      6 C29        34.7266   19.0598   45.3833 C.ar        1 MOL       0.0259
      7 C32        34.3871   20.4019   45.0608 C.ar        1 MOL      -0.0595
      8 C30        34.3891   20.8615   43.7356 C.ar        1 MOL      -0.0865
      9 C28        34.7600   19.9980   42.6926 C.ar        1 MOL      -0.0544
     10 N31        34.7459   18.6114   46.6886 N.pl3       1 MOL      -0.3075
     11 C33        35.2726   19.4015   47.7908 C.3         1 MOL       0.0499
     12 C35        34.1789   19.5795   48.8732 C.3         1 MOL       0.0673
     13 O37        33.6674   18.2893   49.2788 O.3         1 MOL      -0.3759
     14 C36        33.1631   17.4966   48.1830 C.3         1 MOL       0.0673
     15 C34        34.2346   17.3088   47.0780 C.3         1 MOL       0.0499
     16 C19        35.9623   16.2026   40.4275 C.ar        1 MOL       0.0497
     17 C23        35.1104   15.5831   39.4907 C.ar        1 MOL      -0.0479
     18 C20        35.5136   15.4638   38.1520 C.ar        1 MOL      -0.0536
     19 C18        36.7721   15.9430   37.7105 C.ar        1 MOL      -0.0326
     20 C21        36.9721   15.9983   36.2317 C.3         1 MOL      -0.0276
     21 C15        37.7248   16.3962   38.6787 C.ar        1 MOL      -0.0123
     22 C17        37.2822   16.5183   40.0263 C.ar        1 MOL      -0.0399
     23 C12        39.0877   16.7515   38.3620 C.ar        1 MOL      -0.0269
     24 C9         39.7930   17.7379   39.1164 C.ar        1 MOL      -0.0647
     25 C4         41.1335   18.0659   38.8461 C.ar        1 MOL      -0.0614
     26 C1         41.7886   17.4790   37.7437 C.ar        1 MOL       0.0282
     27 C3         41.1116   16.5046   37.0126 C.ar        1 MOL       0.1528
     28 O8         41.9097   16.0738   36.0178 O.3         1 MOL      -0.1790
     29 C7         39.8065   16.1001   37.3209 C.ar        1 MOL      -0.0179
     30 C2         43.0320   17.6177   37.1198 C.2         1 MOL       0.0534
     31 N6         43.0388   16.7281   36.0971 N.2         1 MOL      -0.1500
     32 C5         44.2643   18.4244   37.3990 C.3         1 MOL       0.0120
     33 C10        44.3083   19.2821   38.7060 C.3         1 MOL       0.0001
     34 C13        43.6765   20.6970   38.5603 C.3         1 MOL      -0.0317
     35 N16        44.2165   21.4069   37.3791 N.4         1 MOL       0.2272
     36 C14        43.9966   20.6705   36.1078 C.3         1 MOL      -0.0317
     37 C11        44.7037   19.2874   36.1666 C.3         1 MOL       0.0001
     38 H1         35.9466   18.4557   41.1905 H           1 MOL       0.2248
     39 H2         35.3993   17.2571   44.4985 H           1 MOL       0.0391
     40 H3         34.0894   21.0560   45.7879 H           1 MOL       0.0393
     41 H4         34.1280   21.8294   43.5262 H           1 MOL       0.0546
     42 H5         34.7730   20.3520   41.7361 H           1 MOL       0.0398
     43 H6         35.6687   20.3768   47.4917 H           1 MOL       0.0536
     44 H7         36.1126   18.8535   48.2288 H           1 MOL       0.0536
     45 H8         33.3694   20.2122   48.4911 H           1 MOL       0.0579
     46 H9         34.6163   20.0697   49.7444 H           1 MOL       0.0579
     47 H10        32.2714   17.9719   47.7600 H           1 MOL       0.0579
     48 H11        32.8724   16.5201   48.5746 H           1 MOL       0.0579
     49 H12        35.0584   16.6977   47.4664 H           1 MOL       0.0536
     50 H13        33.7653   16.7591   46.2569 H           1 MOL       0.0536
     51 H14        34.1571   15.3069   39.7534 H           1 MOL       0.0652
     52 H15        34.8383   15.0851   37.4823 H           1 MOL       0.0569
     53 H16        36.0480   16.3301   35.7394 H           1 MOL       0.0406
     54 H17        37.2251   14.9973   35.8637 H           1 MOL       0.0406
     55 H18        37.7664   16.7049   35.9662 H           1 MOL       0.0406
     56 H19        37.9212   16.8614   40.7499 H           1 MOL       0.0658
     57 H20        39.3315   18.2395   39.8833 H           1 MOL       0.0538
     58 H21        41.6137   18.7301   39.4503 H           1 MOL       0.0598
     59 H22        39.3798   15.3418   36.7887 H           1 MOL       0.0568
     60 H23        45.0470   17.6661   37.5294 H           1 MOL       0.0460
     61 H24        45.3630   19.4241   38.9720 H           1 MOL       0.0340
     62 H25        43.8436   18.7440   39.5363 H           1 MOL       0.0340
     63 H26        43.9044   21.2822   39.4575 H           1 MOL       0.0815
     64 H27        42.5889   20.6420   38.4538 H           1 MOL       0.0815
     65 H28        45.2260   21.5304   37.5125 H           1 MOL       0.2013
     66 H29        43.7741   22.3335   37.3296 H           1 MOL       0.2013
     67 H30        44.4206   21.2668   35.2937 H           1 MOL       0.0815
     68 H31        42.9225   20.5400   35.9147 H           1 MOL       0.0815
     69 H32        44.5318   18.7589   35.2213 H           1 MOL       0.0340
     70 H33        45.7794   19.4758   36.2415 H           1 MOL       0.0340
@<TRIPOS>BOND
     1     1     2   2
     2     2     3  am
     3     2    16   1
     4     3     4   1
     5     4     5  ar
     6     4     9  ar
     7     5     6  ar
     8     6     7  ar
     9     6    10   1
    10     7     8  ar
    11     8     9  ar
    12    10    11   1
    13    10    15   1
    14    11    12   1
    15    12    13   1
    16    13    14   1
    17    14    15   1
    18    16    17  ar
    19    16    22  ar
    20    17    18  ar
    21    18    19  ar
    22    19    20   1
    23    19    21  ar
    24    21    22  ar
    25    21    23   1
    26    23    24  ar
    27    23    29  ar
    28    24    25  ar
    29    25    26  ar
    30    26    27  ar
    31    26    30   1
    32    27    28   1
    33    27    29  ar
    34    28    31   1
    35    30    31   2
    36    30    32   1
    37    32    33   1
    38    32    37   1
    39    33    34   1
    40    34    35   1
    41    35    36   1
    42    36    37   1
    43     3    38   1
    44     5    39   1
    45     7    40   1
    46     8    41   1
    47     9    42   1
    48    11    43   1
    49    11    44   1
    50    12    45   1
    51    12    46   1
    52    14    47   1
    53    14    48   1
    54    15    49   1
    55    15    50   1
    56    17    51   1
    57    18    52   1
    58    20    53   1
    59    20    54   1
    60    20    55   1
    61    22    56   1
    62    24    57   1
    63    25    58   1
    64    29    59   1
    65    32    60   1
    66    33    61   1
    67    33    62   1
    68    34    63   1
    69    34    64   1
    70    35    65   1
    71    35    66   1
    72    36    67   1
    73    36    68   1
    74    37    69   1
    75    37    70   1
@<TRIPOS>SUBSTRUCTURE
     1  MOL      2

