@<TRIPOS>MOLECULE
3e93_ligand_015
    70    75
SMALL
GAST_HUCK
****
This file was generated by PARSER (from files_GN.cpp)

@<TRIPOS>ATOM
      1 O25        36.3990   22.3532   37.0931 O.2         1 MOL      -0.3760
      2 C22        37.4067   22.9387   37.4748 C.2         1 MOL       0.2274
      3 N24        37.7718   22.9856   38.7464 N.am        1 MOL      -0.2370
      4 C26        37.0810   22.5470   39.8332 C.ar        1 MOL       0.0536
      5 C27        35.7356   22.9141   40.0895 C.ar        1 MOL      -0.0255
      6 C29        35.0596   22.6062   41.3046 C.ar        1 MOL       0.0259
      7 C32        35.8161   21.8348   42.2339 C.ar        1 MOL      -0.0595
      8 C30        37.1370   21.4304   41.9885 C.ar        1 MOL      -0.0865
      9 C28        37.7778   21.8105   40.8033 C.ar        1 MOL      -0.0544
     10 N31        33.7772   23.0549   41.5952 N.pl3       1 MOL      -0.3075
     11 C33        33.0862   24.1026   40.8487 C.3         1 MOL       0.0499
     12 C35        31.6861   23.6264   40.3893 C.3         1 MOL       0.0673
     13 O37        30.9257   23.2296   41.5380 O.3         1 MOL      -0.3759
     14 C36        31.5496   22.1803   42.2951 C.3         1 MOL       0.0673
     15 C34        32.9846   22.5862   42.7283 C.3         1 MOL       0.0499
     16 C19        38.2149   23.5432   36.5384 C.ar        1 MOL       0.0497
     17 C23        38.1901   24.9495   36.3973 C.ar        1 MOL      -0.0479
     18 C20        39.0432   25.5857   35.4915 C.ar        1 MOL      -0.0536
     19 C18        39.9704   24.8474   34.7126 C.ar        1 MOL      -0.0326
     20 C21        40.8890   25.5695   33.7979 C.3         1 MOL      -0.0276
     21 C15        40.0070   23.4326   34.8558 C.ar        1 MOL      -0.0123
     22 C17        39.1225   22.7943   35.7563 C.ar        1 MOL      -0.0399
     23 C12        40.9620   22.6366   34.1734 C.ar        1 MOL      -0.0269
     24 C9         42.1319   22.2097   34.8511 C.ar        1 MOL      -0.0647
     25 C4         43.0886   21.4009   34.2013 C.ar        1 MOL      -0.0614
     26 C1         42.8556   21.0132   32.8690 C.ar        1 MOL       0.0282
     27 C3         41.7018   21.4189   32.2078 C.ar        1 MOL       0.1528
     28 O8         41.7097   20.8768   30.9721 O.3         1 MOL      -0.1790
     29 C7         40.7504   22.2454   32.8297 C.ar        1 MOL      -0.0179
     30 C2         43.5578   20.2287   31.9577 C.2         1 MOL       0.0534
     31 N6         42.8037   20.1705   30.8403 N.2         1 MOL      -0.1500
     32 C5         44.8694   19.5484   32.1568 C.3         1 MOL       0.0120
     33 C10        45.8723   19.7631   30.9804 C.3         1 MOL       0.0001
     34 C13        45.5805   18.8620   29.7508 C.3         1 MOL      -0.0317
     35 N16        45.3950   17.4419   30.1289 N.4         1 MOL       0.2272
     36 C14        44.3878   17.2032   31.1857 C.3         1 MOL      -0.0317
     37 C11        44.6938   18.0299   32.4592 C.3         1 MOL       0.0001
     38 H1         38.6629   23.3339   38.9213 H           1 MOL       0.2248
     39 H2         35.2669   23.4358   39.3527 H           1 MOL       0.0391
     40 H3         35.4516   21.5991   43.1468 H           1 MOL       0.0393
     41 H4         37.6485   20.8845   42.6863 H           1 MOL       0.0546
     42 H5         38.7504   21.5447   40.6521 H           1 MOL       0.0398
     43 H6         33.6187   24.4858   39.9831 H           1 MOL       0.0536
     44 H7         32.9565   24.9710   41.5037 H           1 MOL       0.0536
     45 H8         31.7746   22.8017   39.6878 H           1 MOL       0.0579
     46 H9         31.1598   24.4422   39.8994 H           1 MOL       0.0579
     47 H10        31.5895   21.2648   41.7035 H           1 MOL       0.0579
     48 H11        30.9366   21.9860   43.1749 H           1 MOL       0.0579
     49 H12        32.9161   23.3906   43.4707 H           1 MOL       0.0536
     50 H13        33.3912   21.7151   43.2330 H           1 MOL       0.0536
     51 H14        37.5486   25.5155   36.9600 H           1 MOL       0.0652
     52 H15        38.9995   26.6074   35.4113 H           1 MOL       0.0569
     53 H16        40.7653   26.6535   33.8468 H           1 MOL       0.0406
     54 H17        40.7008   25.2560   32.7699 H           1 MOL       0.0406
     55 H18        41.9246   25.3402   34.0578 H           1 MOL       0.0406
     56 H19        39.1589   21.7736   35.8719 H           1 MOL       0.0658
     57 H20        42.2972   22.4839   35.8243 H           1 MOL       0.0538
     58 H21        43.9269   21.0977   34.6982 H           1 MOL       0.0598
     59 H22        39.9128   22.5300   32.3156 H           1 MOL       0.0568
     60 H23        45.3337   19.9945   33.0427 H           1 MOL       0.0460
     61 H24        46.8789   19.5273   31.3355 H           1 MOL       0.0340
     62 H25        45.8749   20.8121   30.6724 H           1 MOL       0.0340
     63 H26        46.4202   18.9206   29.0553 H           1 MOL       0.0815
     64 H27        44.6920   19.2118   29.2210 H           1 MOL       0.0815
     65 H28        46.2931   17.0678   30.4411 H           1 MOL       0.2013
     66 H29        45.1118   16.9234   29.2934 H           1 MOL       0.2013
     67 H30        44.3984   16.1405   31.4364 H           1 MOL       0.0815
     68 H31        43.3917   17.4460   30.8055 H           1 MOL       0.0815
     69 H32        43.8992   17.8785   33.1940 H           1 MOL       0.0340
     70 H33        45.6206   17.6506   32.8975 H           1 MOL       0.0340
@<TRIPOS>BOND
     1     1     2   2
     2     2     3  am
     3     2    16   1
     4     3     4   1
     5     4     5  ar
     6     4     9  ar
     7     5     6  ar
     8     6     7  ar
     9     6    10   1
    10     7     8  ar
    11     8     9  ar
    12    10    11   1
    13    10    15   1
    14    11    12   1
    15    12    13   1
    16    13    14   1
    17    14    15   1
    18    16    17  ar
    19    16    22  ar
    20    17    18  ar
    21    18    19  ar
    22    19    20   1
    23    19    21  ar
    24    21    22  ar
    25    21    23   1
    26    23    24  ar
    27    23    29  ar
    28    24    25  ar
    29    25    26  ar
    30    26    27  ar
    31    26    30   1
    32    27    28   1
    33    27    29  ar
    34    28    31   1
    35    30    31   2
    36    30    32   1
    37    32    33   1
    38    32    37   1
    39    33    34   1
    40    34    35   1
    41    35    36   1
    42    36    37   1
    43     3    38   1
    44     5    39   1
    45     7    40   1
    46     8    41   1
    47     9    42   1
    48    11    43   1
    49    11    44   1
    50    12    45   1
    51    12    46   1
    52    14    47   1
    53    14    48   1
    54    15    49   1
    55    15    50   1
    56    17    51   1
    57    18    52   1
    58    20    53   1
    59    20    54   1
    60    20    55   1
    61    22    56   1
    62    24    57   1
    63    25    58   1
    64    29    59   1
    65    32    60   1
    66    33    61   1
    67    33    62   1
    68    34    63   1
    69    34    64   1
    70    35    65   1
    71    35    66   1
    72    36    67   1
    73    36    68   1
    74    37    69   1
    75    37    70   1
@<TRIPOS>SUBSTRUCTURE
     1  MOL      2

