@<TRIPOS>MOLECULE
3e93_ligand_077
    70    75
SMALL
GAST_HUCK
****
This file was generated by PARSER (from files_GN.cpp)

@<TRIPOS>ATOM
      1 O25        37.7479   20.9205   35.8834 O.2         1 MOL      -0.3760
      2 C22        38.4529   21.6871   36.5302 C.2         1 MOL       0.2274
      3 N24        38.9551   22.7890   35.9791 N.am        1 MOL      -0.2370
      4 C26        38.8084   23.2428   34.6982 C.ar        1 MOL       0.0536
      5 C27        37.6768   22.9912   33.8831 C.ar        1 MOL      -0.0255
      6 C29        37.6841   23.2688   32.4982 C.ar        1 MOL       0.0259
      7 C32        38.8219   23.9130   31.9572 C.ar        1 MOL      -0.0595
      8 C30        39.8856   24.3135   32.7877 C.ar        1 MOL      -0.0865
      9 C28        39.8806   23.9741   34.1485 C.ar        1 MOL      -0.0544
     10 N31        36.6333   22.8885   31.7087 N.pl3       1 MOL      -0.3075
     11 C33        35.2597   23.1495   32.0827 C.3         1 MOL       0.0499
     12 C35        34.5870   23.9436   30.9370 C.3         1 MOL       0.0673
     13 O37        34.7210   23.2338   29.6867 O.3         1 MOL      -0.3759
     14 C36        36.0910   22.9611   29.3171 C.3         1 MOL       0.0673
     15 C34        36.8283   22.2077   30.4468 C.3         1 MOL       0.0499
     16 C19        38.7624   21.3235   37.8374 C.ar        1 MOL       0.0497
     17 C23        40.0264   21.5933   38.4133 C.ar        1 MOL      -0.0479
     18 C20        40.3309   21.1751   39.7200 C.ar        1 MOL      -0.0536
     19 C18        39.3767   20.4904   40.5071 C.ar        1 MOL      -0.0326
     20 C21        39.7358   20.0395   41.8765 C.3         1 MOL      -0.0276
     21 C15        38.0880   20.2512   39.9501 C.ar        1 MOL      -0.0123
     22 C17        37.8052   20.6493   38.6290 C.ar        1 MOL      -0.0399
     23 C12        37.0373   19.6492   40.6868 C.ar        1 MOL      -0.0269
     24 C9         36.3945   20.3758   41.7223 C.ar        1 MOL      -0.0647
     25 C4         35.3761   19.7789   42.4980 C.ar        1 MOL      -0.0614
     26 C1         35.0172   18.4457   42.2271 C.ar        1 MOL       0.0282
     27 C3         35.6006   17.7531   41.1709 C.ar        1 MOL       0.1528
     28 O8         35.0725   16.5109   41.1260 O.3         1 MOL      -0.1790
     29 C7         36.6030   18.3371   40.3780 C.ar        1 MOL      -0.0179
     30 C2         34.1539   17.5334   42.8325 C.2         1 MOL       0.0534
     31 N6         34.2215   16.3929   42.1128 N.2         1 MOL      -0.1500
     32 C5         33.3634   17.7309   44.0766 C.3         1 MOL       0.0120
     33 C10        34.2850   18.1089   45.2777 C.3         1 MOL       0.0001
     34 C13        33.4451   18.3349   46.5638 C.3         1 MOL      -0.0317
     35 N16        32.6183   17.1454   46.8774 N.4         1 MOL       0.2272
     36 C14        31.7152   16.7317   45.7786 C.3         1 MOL      -0.0317
     37 C11        32.5040   16.4864   44.4647 C.3         1 MOL       0.0001
     38 H1         39.5850   23.2858   36.5252 H           1 MOL       0.2248
     39 H2         36.8670   22.5238   34.2872 H           1 MOL       0.0391
     40 H3         38.8581   24.1623   30.9659 H           1 MOL       0.0393
     41 H4         40.6707   24.8341   32.3894 H           1 MOL       0.0546
     42 H5         40.6874   24.2305   34.7255 H           1 MOL       0.0398
     43 H6         35.1654   23.7361   32.9991 H           1 MOL       0.0536
     44 H7         34.7312   22.2071   32.2259 H           1 MOL       0.0536
     45 H8         35.0350   24.9388   30.8572 H           1 MOL       0.0579
     46 H9         33.5258   24.0765   31.1513 H           1 MOL       0.0579
     47 H10        36.6186   23.8918   29.0961 H           1 MOL       0.0579
     48 H11        36.0928   22.3490   28.4127 H           1 MOL       0.0579
     49 H12        36.4055   21.2042   30.5333 H           1 MOL       0.0536
     50 H13        37.8790   22.0859   30.1737 H           1 MOL       0.0536
     51 H14        40.7550   22.0750   37.8767 H           1 MOL       0.0652
     52 H15        41.2610   21.3781   40.0918 H           1 MOL       0.0569
     53 H16        40.7726   20.2625   42.1307 H           1 MOL       0.0406
     54 H17        39.5950   18.9598   41.9625 H           1 MOL       0.0406
     55 H18        39.0975   20.5399   42.6046 H           1 MOL       0.0406
     56 H19        36.8694   20.4707   38.2483 H           1 MOL       0.0658
     57 H20        36.6735   21.3395   41.9272 H           1 MOL       0.0538
     58 H21        34.9282   20.3029   43.2540 H           1 MOL       0.0598
     59 H22        37.0314   17.7955   39.6219 H           1 MOL       0.0568
     60 H23        32.6773   18.5642   43.8888 H           1 MOL       0.0460
     61 H24        34.8476   19.0242   45.0595 H           1 MOL       0.0340
     62 H25        34.9993   17.2982   45.4573 H           1 MOL       0.0340
     63 H26        32.7962   19.2089   46.4346 H           1 MOL       0.0815
     64 H27        34.1160   18.5322   47.4047 H           1 MOL       0.0815
     65 H28        32.0534   17.3493   47.7061 H           1 MOL       0.2013
     66 H29        33.2480   16.3663   47.0938 H           1 MOL       0.2013
     67 H30        30.9556   17.5018   45.6250 H           1 MOL       0.0815
     68 H31        31.2112   15.8089   46.0765 H           1 MOL       0.0815
     69 H32        33.1563   15.6178   44.6086 H           1 MOL       0.0340
     70 H33        31.8003   16.2517   43.6611 H           1 MOL       0.0340
@<TRIPOS>BOND
     1     1     2   2
     2     2     3  am
     3     2    16   1
     4     3     4   1
     5     4     5  ar
     6     4     9  ar
     7     5     6  ar
     8     6     7  ar
     9     6    10   1
    10     7     8  ar
    11     8     9  ar
    12    10    11   1
    13    10    15   1
    14    11    12   1
    15    12    13   1
    16    13    14   1
    17    14    15   1
    18    16    17  ar
    19    16    22  ar
    20    17    18  ar
    21    18    19  ar
    22    19    20   1
    23    19    21  ar
    24    21    22  ar
    25    21    23   1
    26    23    24  ar
    27    23    29  ar
    28    24    25  ar
    29    25    26  ar
    30    26    27  ar
    31    26    30   1
    32    27    28   1
    33    27    29  ar
    34    28    31   1
    35    30    31   2
    36    30    32   1
    37    32    33   1
    38    32    37   1
    39    33    34   1
    40    34    35   1
    41    35    36   1
    42    36    37   1
    43     3    38   1
    44     5    39   1
    45     7    40   1
    46     8    41   1
    47     9    42   1
    48    11    43   1
    49    11    44   1
    50    12    45   1
    51    12    46   1
    52    14    47   1
    53    14    48   1
    54    15    49   1
    55    15    50   1
    56    17    51   1
    57    18    52   1
    58    20    53   1
    59    20    54   1
    60    20    55   1
    61    22    56   1
    62    24    57   1
    63    25    58   1
    64    29    59   1
    65    32    60   1
    66    33    61   1
    67    33    62   1
    68    34    63   1
    69    34    64   1
    70    35    65   1
    71    35    66   1
    72    36    67   1
    73    36    68   1
    74    37    69   1
    75    37    70   1
@<TRIPOS>SUBSTRUCTURE
     1  MOL      2

