@<TRIPOS>MOLECULE
3e93_ligand_012
    70    75
SMALL
GAST_HUCK
****
This file was generated by PARSER (from files_GN.cpp)

@<TRIPOS>ATOM
      1 O25        40.9048   29.8617   36.1925 O.2         1 MOL      -0.3760
      2 C22        39.9820   29.7267   35.3964 C.2         1 MOL       0.2274
      3 N24        39.0020   28.8550   35.6179 N.am        1 MOL      -0.2370
      4 C26        38.8214   28.0723   36.7259 C.ar        1 MOL       0.0536
      5 C27        38.9967   28.5361   38.0513 C.ar        1 MOL      -0.0255
      6 C29        38.7946   27.7107   39.1936 C.ar        1 MOL       0.0259
      7 C32        38.4021   26.3691   38.9239 C.ar        1 MOL      -0.0595
      8 C30        38.2247   25.8878   37.6163 C.ar        1 MOL      -0.0865
      9 C28        38.4203   26.7399   36.5225 C.ar        1 MOL      -0.0544
     10 N31        38.9630   28.1770   40.4860 N.pl3       1 MOL      -0.3075
     11 C33        38.8957   29.5857   40.8566 C.3         1 MOL       0.0499
     12 C35        40.2394   30.0190   41.4937 C.3         1 MOL       0.0673
     13 O37        40.5495   29.1697   42.6170 O.3         1 MOL      -0.3759
     14 C36        40.5862   27.7676   42.2864 C.3         1 MOL       0.0673
     15 C34        39.2666   27.3058   41.6153 C.3         1 MOL       0.0499
     16 C19        40.0906   30.3300   34.1501 C.ar        1 MOL       0.0497
     17 C23        39.0144   31.0537   33.5892 C.ar        1 MOL      -0.0479
     18 C20        39.1407   31.6630   32.3278 C.ar        1 MOL      -0.0536
     19 C18        40.3292   31.5327   31.5707 C.ar        1 MOL      -0.0326
     20 C21        40.4066   32.1238   30.2085 C.3         1 MOL      -0.0276
     21 C15        41.4114   30.7910   32.1193 C.ar        1 MOL      -0.0123
     22 C17        41.2868   30.2178   33.4045 C.ar        1 MOL      -0.0399
     23 C12        42.5932   30.5236   31.3854 C.ar        1 MOL      -0.0269
     24 C9         42.7636   29.2492   30.7901 C.ar        1 MOL      -0.0647
     25 C4         43.9352   28.9446   30.0737 C.ar        1 MOL      -0.0614
     26 C1         44.9589   29.9051   29.9827 C.ar        1 MOL       0.0282
     27 C3         44.7772   31.1645   30.5436 C.ar        1 MOL       0.1528
     28 O8         45.8873   31.8943   30.3111 O.3         1 MOL      -0.1790
     29 C7         43.6070   31.5007   31.2439 C.ar        1 MOL      -0.0179
     30 C2         46.2420   29.9101   29.4375 C.2         1 MOL       0.0534
     31 N6         46.7408   31.1459   29.6595 N.2         1 MOL      -0.1500
     32 C5         46.9598   28.8003   28.7445 C.3         1 MOL       0.0120
     33 C10        46.9950   27.4862   29.5893 C.3         1 MOL       0.0001
     34 C13        47.7413   26.3551   28.8407 C.3         1 MOL      -0.0317
     35 N16        49.1157   26.7766   28.5041 N.4         1 MOL       0.2272
     36 C14        49.1836   28.0104   27.6895 C.3         1 MOL      -0.0317
     37 C11        48.4276   29.1815   28.3690 C.3         1 MOL       0.0001
     38 H1         38.4279   28.6533   34.8576 H           1 MOL       0.2248
     39 H2         39.3135   29.4955   38.1661 H           1 MOL       0.0391
     40 H3         38.1833   25.7203   39.6796 H           1 MOL       0.0393
     41 H4         37.9468   24.9160   37.4622 H           1 MOL       0.0546
     42 H5         38.2929   26.3751   35.5765 H           1 MOL       0.0398
     43 H6         38.1018   29.7168   41.5960 H           1 MOL       0.0536
     44 H7         38.6462   30.2673   40.0465 H           1 MOL       0.0536
     45 H8         40.1623   31.0474   41.8503 H           1 MOL       0.0579
     46 H9         41.0431   29.9797   40.7522 H           1 MOL       0.0579
     47 H10        40.7440   27.2010   43.2057 H           1 MOL       0.0579
     48 H11        41.4271   27.5690   41.6170 H           1 MOL       0.0579
     49 H12        39.4110   26.2582   41.3535 H           1 MOL       0.0536
     50 H13        38.4480   27.3524   42.3409 H           1 MOL       0.0536
     51 H14        38.1351   31.1634   34.1059 H           1 MOL       0.0652
     52 H15        38.3464   32.1936   31.9608 H           1 MOL       0.0569
     53 H16        39.4770   32.6127   29.9088 H           1 MOL       0.0406
     54 H17        40.6224   31.3370   29.4832 H           1 MOL       0.0406
     55 H18        41.2073   32.8643   30.1679 H           1 MOL       0.0406
     56 H19        42.0657   29.6728   33.7881 H           1 MOL       0.0658
     57 H20        42.0370   28.5313   30.8709 H           1 MOL       0.0538
     58 H21        44.0210   28.0336   29.6358 H           1 MOL       0.0598
     59 H22        43.5148   32.4278   31.6622 H           1 MOL       0.0568
     60 H23        46.4120   28.5997   27.8172 H           1 MOL       0.0460
     61 H24        45.9936   27.1192   29.8020 H           1 MOL       0.0340
     62 H25        47.4782   27.6704   30.5526 H           1 MOL       0.0340
     63 H26        47.1981   26.0860   27.9286 H           1 MOL       0.0815
     64 H27        47.7899   25.4699   29.4769 H           1 MOL       0.0815
     65 H28        49.5713   26.0199   27.9928 H           1 MOL       0.2013
     66 H29        49.6275   26.9334   29.3747 H           1 MOL       0.2013
     67 H30        48.7636   27.8213   26.6982 H           1 MOL       0.0815
     68 H31        50.2341   28.2826   27.5645 H           1 MOL       0.0815
     69 H32        48.9755   29.4639   29.2739 H           1 MOL       0.0340
     70 H33        48.4276   30.0394   27.6935 H           1 MOL       0.0340
@<TRIPOS>BOND
     1     1     2   2
     2     2     3  am
     3     2    16   1
     4     3     4   1
     5     4     5  ar
     6     4     9  ar
     7     5     6  ar
     8     6     7  ar
     9     6    10   1
    10     7     8  ar
    11     8     9  ar
    12    10    11   1
    13    10    15   1
    14    11    12   1
    15    12    13   1
    16    13    14   1
    17    14    15   1
    18    16    17  ar
    19    16    22  ar
    20    17    18  ar
    21    18    19  ar
    22    19    20   1
    23    19    21  ar
    24    21    22  ar
    25    21    23   1
    26    23    24  ar
    27    23    29  ar
    28    24    25  ar
    29    25    26  ar
    30    26    27  ar
    31    26    30   1
    32    27    28   1
    33    27    29  ar
    34    28    31   1
    35    30    31   2
    36    30    32   1
    37    32    33   1
    38    32    37   1
    39    33    34   1
    40    34    35   1
    41    35    36   1
    42    36    37   1
    43     3    38   1
    44     5    39   1
    45     7    40   1
    46     8    41   1
    47     9    42   1
    48    11    43   1
    49    11    44   1
    50    12    45   1
    51    12    46   1
    52    14    47   1
    53    14    48   1
    54    15    49   1
    55    15    50   1
    56    17    51   1
    57    18    52   1
    58    20    53   1
    59    20    54   1
    60    20    55   1
    61    22    56   1
    62    24    57   1
    63    25    58   1
    64    29    59   1
    65    32    60   1
    66    33    61   1
    67    33    62   1
    68    34    63   1
    69    34    64   1
    70    35    65   1
    71    35    66   1
    72    36    67   1
    73    36    68   1
    74    37    69   1
    75    37    70   1
@<TRIPOS>SUBSTRUCTURE
     1  MOL      2

