@<TRIPOS>MOLECULE
3e93_ligand_075
    70    75
SMALL
GAST_HUCK
****
This file was generated by PARSER (from files_GN.cpp)

@<TRIPOS>ATOM
      1 O25        40.7346   19.6108   36.5523 O.2         1 MOL      -0.3760
      2 C22        41.2503   20.6651   36.9125 C.2         1 MOL       0.2274
      3 N24        42.5631   20.8484   36.8154 N.am        1 MOL      -0.2370
      4 C26        43.4839   19.9998   36.2722 C.ar        1 MOL       0.0536
      5 C27        43.2386   19.2112   35.1231 C.ar        1 MOL      -0.0255
      6 C29        44.2569   18.4371   34.5099 C.ar        1 MOL       0.0259
      7 C32        45.5445   18.4605   35.1079 C.ar        1 MOL      -0.0595
      8 C30        45.7883   19.1968   36.2779 C.ar        1 MOL      -0.0865
      9 C28        44.7670   19.9735   36.8493 C.ar        1 MOL      -0.0544
     10 N31        43.9928   17.7225   33.3674 N.pl3       1 MOL      -0.3075
     11 C33        44.9145   17.6826   32.2459 C.3         1 MOL       0.0499
     12 C35        45.2452   16.2159   31.8755 C.3         1 MOL       0.0673
     13 O37        44.0420   15.4331   31.7276 O.3         1 MOL      -0.3759
     14 C36        43.1888   15.4673   32.8885 C.3         1 MOL       0.0673
     15 C34        42.7843   16.9275   33.2322 C.3         1 MOL       0.0499
     16 C19        40.4400   21.6484   37.4726 C.ar        1 MOL       0.0497
     17 C23        39.4000   21.2835   38.3579 C.ar        1 MOL      -0.0479
     18 C20        38.5160   22.2425   38.8666 C.ar        1 MOL      -0.0536
     19 C18        38.6072   23.5985   38.4804 C.ar        1 MOL      -0.0326
     20 C21        37.5490   24.5325   38.9453 C.3         1 MOL      -0.0276
     21 C15        39.6691   24.0046   37.6162 C.ar        1 MOL      -0.0123
     22 C17        40.5755   23.0201   37.1435 C.ar        1 MOL      -0.0399
     23 C12        39.8093   25.3450   37.1349 C.ar        1 MOL      -0.0269
     24 C9         39.8806   26.4526   38.0205 C.ar        1 MOL      -0.0647
     25 C4         40.0063   27.7764   37.5425 C.ar        1 MOL      -0.0614
     26 C1         40.0604   27.9966   36.1530 C.ar        1 MOL       0.0282
     27 C3         40.0191   26.9181   35.2772 C.ar        1 MOL       0.1528
     28 O8         40.1192   27.3933   34.0194 O.3         1 MOL      -0.1790
     29 C7         39.8907   25.5997   35.7396 C.ar        1 MOL      -0.0179
     30 C2         40.1581   29.1322   35.3528 C.2         1 MOL       0.0534
     31 N6         40.1999   28.6982   34.0781 N.2         1 MOL      -0.1500
     32 C5         40.1571   30.5639   35.7640 C.3         1 MOL       0.0120
     33 C10        38.9509   31.3531   35.1700 C.3         1 MOL       0.0001
     34 C13        39.1689   31.8007   33.7006 C.3         1 MOL      -0.0317
     35 N16        40.4427   32.5357   33.5578 N.4         1 MOL       0.2272
     36 C14        41.6293   31.7625   33.9844 C.3         1 MOL      -0.0317
     37 C11        41.4992   31.2931   35.4573 C.3         1 MOL       0.0001
     38 H1         42.9170   21.6521   37.2429 H           1 MOL       0.2248
     39 H2         42.3248   19.2756   34.6653 H           1 MOL       0.0391
     40 H3         46.3086   17.9017   34.7199 H           1 MOL       0.0393
     41 H4         46.7125   19.1782   36.7050 H           1 MOL       0.0546
     42 H5         44.9564   20.5134   37.6939 H           1 MOL       0.0398
     43 H6         45.8463   18.2249   32.4294 H           1 MOL       0.0536
     44 H7         44.4338   18.1638   31.3880 H           1 MOL       0.0536
     45 H8         45.8932   15.7776   32.6390 H           1 MOL       0.0579
     46 H9         45.7783   16.1953   30.9236 H           1 MOL       0.0579
     47 H10        43.7001   15.0062   33.7402 H           1 MOL       0.0579
     48 H11        42.2951   14.8786   32.6757 H           1 MOL       0.0579
     49 H12        42.1570   17.3321   32.4332 H           1 MOL       0.0536
     50 H13        42.1884   16.8990   34.1497 H           1 MOL       0.0536
     51 H14        39.2796   20.3106   38.6507 H           1 MOL       0.0652
     52 H15        37.7767   21.9288   39.4991 H           1 MOL       0.0569
     53 H16        36.7328   24.0142   39.4552 H           1 MOL       0.0406
     54 H17        37.1247   25.0731   38.0951 H           1 MOL       0.0406
     55 H18        37.9755   25.2390   39.6555 H           1 MOL       0.0406
     56 H19        41.3267   23.3097   36.5103 H           1 MOL       0.0658
     57 H20        39.8549   26.3018   39.0329 H           1 MOL       0.0538
     58 H21        40.0618   28.5606   38.1958 H           1 MOL       0.0598
     59 H22        39.8393   24.8419   35.0602 H           1 MOL       0.0568
     60 H23        40.0353   30.5771   36.8476 H           1 MOL       0.0460
     61 H24        38.7876   32.2503   35.7740 H           1 MOL       0.0340
     62 H25        38.0392   30.7546   35.2283 H           1 MOL       0.0340
     63 H26        38.3516   32.4568   33.3984 H           1 MOL       0.0815
     64 H27        39.1612   30.9372   33.0307 H           1 MOL       0.0815
     65 H28        40.3926   33.3861   34.1240 H           1 MOL       0.2013
     66 H29        40.5605   32.8034   32.5800 H           1 MOL       0.2013
     67 H30        42.5081   32.4018   33.8850 H           1 MOL       0.0815
     68 H31        41.7690   30.9037   33.3240 H           1 MOL       0.0815
     69 H32        42.3458   30.6499   35.7097 H           1 MOL       0.0340
     70 H33        41.5634   32.1778   36.0967 H           1 MOL       0.0340
@<TRIPOS>BOND
     1     1     2   2
     2     2     3  am
     3     2    16   1
     4     3     4   1
     5     4     5  ar
     6     4     9  ar
     7     5     6  ar
     8     6     7  ar
     9     6    10   1
    10     7     8  ar
    11     8     9  ar
    12    10    11   1
    13    10    15   1
    14    11    12   1
    15    12    13   1
    16    13    14   1
    17    14    15   1
    18    16    17  ar
    19    16    22  ar
    20    17    18  ar
    21    18    19  ar
    22    19    20   1
    23    19    21  ar
    24    21    22  ar
    25    21    23   1
    26    23    24  ar
    27    23    29  ar
    28    24    25  ar
    29    25    26  ar
    30    26    27  ar
    31    26    30   1
    32    27    28   1
    33    27    29  ar
    34    28    31   1
    35    30    31   2
    36    30    32   1
    37    32    33   1
    38    32    37   1
    39    33    34   1
    40    34    35   1
    41    35    36   1
    42    36    37   1
    43     3    38   1
    44     5    39   1
    45     7    40   1
    46     8    41   1
    47     9    42   1
    48    11    43   1
    49    11    44   1
    50    12    45   1
    51    12    46   1
    52    14    47   1
    53    14    48   1
    54    15    49   1
    55    15    50   1
    56    17    51   1
    57    18    52   1
    58    20    53   1
    59    20    54   1
    60    20    55   1
    61    22    56   1
    62    24    57   1
    63    25    58   1
    64    29    59   1
    65    32    60   1
    66    33    61   1
    67    33    62   1
    68    34    63   1
    69    34    64   1
    70    35    65   1
    71    35    66   1
    72    36    67   1
    73    36    68   1
    74    37    69   1
    75    37    70   1
@<TRIPOS>SUBSTRUCTURE
     1  MOL      2

