@<TRIPOS>MOLECULE
3e93_ligand_054
    70    75
SMALL
GAST_HUCK
****
This file was generated by PARSER (from files_GN.cpp)

@<TRIPOS>ATOM
      1 O25        37.4458   21.2738   38.2206 O.2         1 MOL      -0.3760
      2 C22        37.4039   22.4968   38.2964 C.2         1 MOL       0.2274
      3 N24        36.7016   23.0672   39.2780 N.am        1 MOL      -0.2370
      4 C26        36.0594   22.4498   40.3187 C.ar        1 MOL       0.0536
      5 C27        36.5729   21.3223   41.0015 C.ar        1 MOL      -0.0255
      6 C29        35.8320   20.6317   41.9936 C.ar        1 MOL       0.0259
      7 C32        34.5548   21.1536   42.3252 C.ar        1 MOL      -0.0595
      8 C30        34.0728   22.3363   41.7324 C.ar        1 MOL      -0.0865
      9 C28        34.8242   22.9850   40.7391 C.ar        1 MOL      -0.0544
     10 N31        36.3210   19.4911   42.5826 N.pl3       1 MOL      -0.3075
     11 C33        37.6901   19.4602   43.0767 C.3         1 MOL       0.0499
     12 C35        38.0859   18.1697   43.8353 C.3         1 MOL       0.0673
     13 O37        37.5797   17.0185   43.1451 O.3         1 MOL      -0.3759
     14 C36        36.1413   17.0021   43.1419 C.3         1 MOL       0.0673
     15 C34        35.5308   18.2730   42.4856 C.3         1 MOL       0.0499
     16 C19        38.0745   23.2440   37.3167 C.ar        1 MOL       0.0497
     17 C23        37.7135   24.5779   37.0153 C.ar        1 MOL      -0.0479
     18 C20        38.4095   25.3189   36.0452 C.ar        1 MOL      -0.0536
     19 C18        39.4926   24.7564   35.3332 C.ar        1 MOL      -0.0326
     20 C21        40.2312   25.6070   34.3629 C.3         1 MOL      -0.0276
     21 C15        39.8575   23.4063   35.5935 C.ar        1 MOL      -0.0123
     22 C17        39.1459   22.6773   36.5772 C.ar        1 MOL      -0.0399
     23 C12        40.9037   22.7393   34.8963 C.ar        1 MOL      -0.0269
     24 C9         42.0496   22.2613   35.5858 C.ar        1 MOL      -0.0647
     25 C4         43.0507   21.5268   34.9112 C.ar        1 MOL      -0.0614
     26 C1         42.8870   21.2678   33.5386 C.ar        1 MOL       0.0282
     27 C3         41.7681   21.7316   32.8601 C.ar        1 MOL       0.1528
     28 O8         41.8516   21.3392   31.5728 O.3         1 MOL      -0.1790
     29 C7         40.7709   22.4742   33.5110 C.ar        1 MOL      -0.0179
     30 C2         43.6459   20.5915   32.5839 C.2         1 MOL       0.0534
     31 N6         42.9626   20.6657   31.4232 N.2         1 MOL      -0.1500
     32 C5         44.9480   19.9004   32.7878 C.3         1 MOL       0.0120
     33 C10        45.8552   19.8592   31.5170 C.3         1 MOL       0.0001
     34 C13        45.4217   18.7859   30.4814 C.3         1 MOL      -0.0317
     35 N16        45.2149   17.4633   31.1121 N.4         1 MOL       0.2272
     36 C14        44.2808   17.4682   32.2613 C.3         1 MOL      -0.0317
     37 C11        44.7512   18.4628   33.3538 C.3         1 MOL       0.0001
     38 H1         36.5796   24.0285   39.2284 H           1 MOL       0.2248
     39 H2         37.4884   20.9636   40.7301 H           1 MOL       0.0391
     40 H3         33.9983   20.7184   43.0633 H           1 MOL       0.0393
     41 H4         33.1728   22.7274   42.0211 H           1 MOL       0.0546
     42 H5         34.4556   23.8366   40.3024 H           1 MOL       0.0398
     43 H6         37.8330   20.3007   43.7632 H           1 MOL       0.0536
     44 H7         38.3964   19.5772   42.2532 H           1 MOL       0.0536
     45 H8         37.7140   18.2016   44.8649 H           1 MOL       0.0579
     46 H9         39.1747   18.0869   43.8818 H           1 MOL       0.0579
     47 H10        35.7734   16.8962   44.1665 H           1 MOL       0.0579
     48 H11        35.8207   16.1144   42.5909 H           1 MOL       0.0579
     49 H12        35.3881   18.0587   41.4203 H           1 MOL       0.0536
     50 H13        34.5405   18.4229   42.9223 H           1 MOL       0.0536
     51 H14        36.9204   25.0271   37.4766 H           1 MOL       0.0652
     52 H15        38.1109   26.2799   35.8621 H           1 MOL       0.0569
     53 H16        39.9300   26.6543   34.4214 H           1 MOL       0.0406
     54 H17        40.0440   25.2597   33.3470 H           1 MOL       0.0406
     55 H18        41.3023   25.5593   34.5654 H           1 MOL       0.0406
     56 H19        39.4240   21.7067   36.7598 H           1 MOL       0.0658
     57 H20        42.1602   22.4378   36.5877 H           1 MOL       0.0538
     58 H21        43.8688   21.1825   35.4171 H           1 MOL       0.0598
     59 H22        39.9493   22.7757   32.9839 H           1 MOL       0.0568
     60 H23        45.4945   20.4813   33.5382 H           1 MOL       0.0460
     61 H24        46.8776   19.6278   31.8314 H           1 MOL       0.0340
     62 H25        45.8774   20.8418   31.0370 H           1 MOL       0.0340
     63 H26        46.2013   18.6837   29.7238 H           1 MOL       0.0815
     64 H27        44.5058   19.0894   29.9715 H           1 MOL       0.0815
     65 H28        46.1211   17.1187   31.4343 H           1 MOL       0.2013
     66 H29        44.8584   16.8175   30.4042 H           1 MOL       0.2013
     67 H30        44.2434   16.4603   32.6799 H           1 MOL       0.0815
     68 H31        43.2755   17.7277   31.9185 H           1 MOL       0.0815
     69 H32        44.0335   18.4679   34.1790 H           1 MOL       0.0340
     70 H33        45.7054   18.1080   33.7530 H           1 MOL       0.0340
@<TRIPOS>BOND
     1     1     2   2
     2     2     3  am
     3     2    16   1
     4     3     4   1
     5     4     5  ar
     6     4     9  ar
     7     5     6  ar
     8     6     7  ar
     9     6    10   1
    10     7     8  ar
    11     8     9  ar
    12    10    11   1
    13    10    15   1
    14    11    12   1
    15    12    13   1
    16    13    14   1
    17    14    15   1
    18    16    17  ar
    19    16    22  ar
    20    17    18  ar
    21    18    19  ar
    22    19    20   1
    23    19    21  ar
    24    21    22  ar
    25    21    23   1
    26    23    24  ar
    27    23    29  ar
    28    24    25  ar
    29    25    26  ar
    30    26    27  ar
    31    26    30   1
    32    27    28   1
    33    27    29  ar
    34    28    31   1
    35    30    31   2
    36    30    32   1
    37    32    33   1
    38    32    37   1
    39    33    34   1
    40    34    35   1
    41    35    36   1
    42    36    37   1
    43     3    38   1
    44     5    39   1
    45     7    40   1
    46     8    41   1
    47     9    42   1
    48    11    43   1
    49    11    44   1
    50    12    45   1
    51    12    46   1
    52    14    47   1
    53    14    48   1
    54    15    49   1
    55    15    50   1
    56    17    51   1
    57    18    52   1
    58    20    53   1
    59    20    54   1
    60    20    55   1
    61    22    56   1
    62    24    57   1
    63    25    58   1
    64    29    59   1
    65    32    60   1
    66    33    61   1
    67    33    62   1
    68    34    63   1
    69    34    64   1
    70    35    65   1
    71    35    66   1
    72    36    67   1
    73    36    68   1
    74    37    69   1
    75    37    70   1
@<TRIPOS>SUBSTRUCTURE
     1  MOL      2

