@<TRIPOS>MOLECULE
3ebp_ligand_005
    49    52
SMALL
GAST_HUCK
****
This file was generated by PARSER (from files_GN.cpp)

@<TRIPOS>ATOM
      1 C1         43.1474   40.3717   21.4354 C.3         1 CPB      -0.0430
      2 N1         42.2043   40.6455   22.5553 N.4         1 CPB       0.2351
      3 C16        41.2901   39.4898   22.8248 C.3         1 CPB      -0.0305
      4 C15        40.2273   39.8514   23.8938 C.3         1 CPB      -0.0017
      5 C14        40.8976   40.3794   25.2030 C.3         1 CPB       0.0215
      6 C13        41.9117   41.5321   24.9012 C.3         1 CPB       0.1030
      7 C12        42.9134   41.1060   23.7922 C.3         1 CPB      -0.0040
      8 C8         39.9209   40.7116   26.3119 C.ar        1 CPB       0.0228
      9 C9         40.0321   40.1035   27.5988 C.ar        1 CPB       0.1322
     10 O1         41.0438   39.1886   27.8380 O.3         1 CPB      -0.2448
     11 C2         41.1285   38.5338   29.0218 C.2         1 CPB       0.1417
     12 C3         40.2949   38.8333   30.0397 C.2         1 CPB       0.0078
     13 C4         39.3226   39.7682   29.8872 C.2         1 CPB       0.0995
     14 O4         38.5937   39.9795   30.8474 O.2         1 CPB      -0.4249
     15 C10        39.1386   40.4315   28.6626 C.ar        1 CPB       0.0721
     16 C5         38.1233   41.3909   28.4285 C.ar        1 CPB       0.0869
     17 O5         37.2361   41.7889   29.3788 O.3         1 CPB      -0.3368
     18 C6         37.9982   41.9848   27.1658 C.ar        1 CPB      -0.0144
     19 C7         38.8852   41.6596   26.1241 C.ar        1 CPB       0.0802
     20 O7         38.6876   42.2993   24.9480 O.3         1 CPB      -0.3389
     21 C21        42.1170   37.5548   29.1304 C.ar        1 CPB       0.0440
     22 C22        42.2957   36.5487   28.1364 C.ar        1 CPB       0.0577
     23 CL1        41.3020   36.3883   26.7643 Cl          1 CPB      -0.0650
     24 C23        43.2998   35.5726   28.2946 C.ar        1 CPB      -0.0431
     25 C24        44.1382   35.5826   29.4237 C.ar        1 CPB      -0.0577
     26 C25        43.9798   36.5724   30.4035 C.ar        1 CPB      -0.0569
     27 C26        42.9788   37.5479   30.2590 C.ar        1 CPB      -0.0446
     28 O3         41.2800   42.7476   24.4986 O.3         1 CPB      -0.3849
     29 H1         42.6026   40.0719   20.5368 H           1 CPB       0.0778
     30 H2         43.8532   39.5777   21.6940 H           1 CPB       0.0778
     31 H3         43.7085   41.2760   21.1883 H           1 CPB       0.0778
     32 H4         41.6218   41.4289   22.2431 H           1 CPB       0.2031
     33 H5         41.8600   38.6191   23.1646 H           1 CPB       0.0816
     34 H6         40.7660   39.2055   21.9068 H           1 CPB       0.0816
     35 H7         39.6242   38.9666   24.1174 H           1 CPB       0.0335
     36 H8         39.5687   40.5965   23.4491 H           1 CPB       0.0335
     37 H9         41.5212   39.5435   25.5324 H           1 CPB       0.0427
     38 H10        42.4732   41.7499   25.8154 H           1 CPB       0.0665
     39 H11        43.5518   41.9616   23.5578 H           1 CPB       0.0841
     40 H12        43.5579   40.3095   24.1757 H           1 CPB       0.0841
     41 H13        40.3664   38.3367   30.9004 H           1 CPB       0.0418
     42 H14        37.7779   42.0598   30.1499 H           1 CPB       0.2482
     43 H15        37.2615   42.6738   26.9980 H           1 CPB       0.0388
     44 H16        38.8645   43.2436   25.1332 H           1 CPB       0.2468
     45 H17        43.4191   34.8363   27.5984 H           1 CPB       0.0633
     46 H18        44.8597   34.8682   29.5299 H           1 CPB       0.0647
     47 H19        44.5884   36.5824   31.2266 H           1 CPB       0.0629
     48 H20        42.8945   38.2664   30.9854 H           1 CPB       0.0661
     49 H21        42.0005   43.4068   24.4091 H           1 CPB       0.2102
@<TRIPOS>BOND
     1     1     2   1
     2     2     3   1
     3     2     7   1
     4     3     4   1
     5     4     5   1
     6     5     6   1
     7     5     8   1
     8     6     7   1
     9     6    28   1
    10     8     9  ar
    11     8    19  ar
    12     9    10   1
    13     9    15  ar
    14    10    11   1
    15    11    12   2
    16    11    21   1
    17    12    13   1
    18    13    14   2
    19    13    15   1
    20    15    16  ar
    21    16    17   1
    22    16    18  ar
    23    18    19  ar
    24    19    20   1
    25    21    22  ar
    26    21    27  ar
    27    22    23   1
    28    22    24  ar
    29    24    25  ar
    30    25    26  ar
    31    26    27  ar
    32     1    29   1
    33     1    30   1
    34     1    31   1
    35     2    32   1
    36     3    33   1
    37     3    34   1
    38     4    35   1
    39     4    36   1
    40     5    37   1
    41     6    38   1
    42     7    39   1
    43     7    40   1
    44    12    41   1
    45    17    42   1
    46    18    43   1
    47    20    44   1
    48    24    45   1
    49    25    46   1
    50    26    47   1
    51    27    48   1
    52    28    49   1
@<TRIPOS>SUBSTRUCTURE
     1  CPB      1

