@<TRIPOS>MOLECULE
3ebp_ligand_009
    49    52
SMALL
GAST_HUCK
****
This file was generated by PARSER (from files_GN.cpp)

@<TRIPOS>ATOM
      1 C1         42.9113   40.1883   21.1555 C.3         1 CPB      -0.0430
      2 N1         42.0537   40.5049   22.3340 N.4         1 CPB       0.2351
      3 C16        40.9605   39.5105   22.5716 C.3         1 CPB      -0.0305
      4 C15        40.0009   39.9707   23.7094 C.3         1 CPB      -0.0017
      5 C14        40.7716   40.3568   25.0103 C.3         1 CPB       0.0215
      6 C13        41.9268   41.3580   24.6711 C.3         1 CPB       0.1030
      7 C12        42.8524   40.7523   23.5805 C.3         1 CPB      -0.0040
      8 C8         39.8409   40.6256   26.1809 C.ar        1 CPB       0.0228
      9 C9         39.4072   41.9174   26.5942 C.ar        1 CPB       0.1322
     10 O1         39.7251   43.0187   25.8405 O.3         1 CPB      -0.2448
     11 C2         39.5996   44.2589   26.3527 C.2         1 CPB       0.1417
     12 C3         38.9007   44.4835   27.4824 C.2         1 CPB       0.0078
     13 C4         38.3668   43.4355   28.1659 C.2         1 CPB       0.0995
     14 O4         37.8059   43.6886   29.2246 O.2         1 CPB      -0.4249
     15 C10        38.6020   42.1103   27.7599 C.ar        1 CPB       0.0721
     16 C5         38.1392   40.9769   28.4698 C.ar        1 CPB       0.0869
     17 O5         37.3159   41.0824   29.5430 O.3         1 CPB      -0.3368
     18 C6         38.4950   39.6909   28.0344 C.ar        1 CPB      -0.0144
     19 C7         39.3233   39.5169   26.9105 C.ar        1 CPB       0.0802
     20 O7         39.5562   38.2336   26.5353 O.3         1 CPB      -0.3389
     21 C21        40.2140   45.2706   25.6378 C.ar        1 CPB       0.0440
     22 C22        41.6243   45.3280   25.4861 C.ar        1 CPB       0.0577
     23 CL1        42.6811   44.2852   26.3126 Cl          1 CPB      -0.0650
     24 C23        42.1956   46.2991   24.6381 C.ar        1 CPB      -0.0431
     25 C24        41.3818   47.2255   23.9617 C.ar        1 CPB      -0.0577
     26 C25        39.9879   47.1816   24.1275 C.ar        1 CPB      -0.0569
     27 C26        39.4046   46.2028   24.9508 C.ar        1 CPB      -0.0446
     28 O3         41.4899   42.6010   24.1259 O.3         1 CPB      -0.3849
     29 H1         42.2995   39.9917   20.2722 H           1 CPB       0.0778
     30 H2         43.5452   39.3181   21.3407 H           1 CPB       0.0778
     31 H3         43.5492   41.0466   20.9248 H           1 CPB       0.0778
     32 H4         41.5853   41.3860   22.0946 H           1 CPB       0.2031
     33 H5         41.3910   38.5369   22.8315 H           1 CPB       0.0816
     34 H6         40.3708   39.3807   21.6598 H           1 CPB       0.0816
     35 H7         39.3102   39.1480   23.9219 H           1 CPB       0.0335
     36 H8         39.4174   40.8241   23.3609 H           1 CPB       0.0335
     37 H9         41.3213   39.4502   25.2930 H           1 CPB       0.0427
     38 H10        42.5109   41.5477   25.5734 H           1 CPB       0.0665
     39 H11        43.6666   41.4549   23.3852 H           1 CPB       0.0841
     40 H12        43.3055   39.8242   23.9455 H           1 CPB       0.0841
     41 H13        38.8182   45.4077   27.8434 H           1 CPB       0.0418
     42 H14        37.8806   40.8565   30.3161 H           1 CPB       0.2482
     43 H15        38.1460   38.8715   28.5425 H           1 CPB       0.0388
     44 H16        38.7798   38.0031   25.9780 H           1 CPB       0.2468
     45 H17        43.2101   46.3379   24.5046 H           1 CPB       0.0633
     46 H18        41.8031   47.9286   23.3492 H           1 CPB       0.0647
     47 H19        39.3936   47.8514   23.6341 H           1 CPB       0.0629
     48 H20        38.3836   46.1666   25.0248 H           1 CPB       0.0661
     49 H21        42.2958   43.1680   24.0433 H           1 CPB       0.2102
@<TRIPOS>BOND
     1     1     2   1
     2     2     3   1
     3     2     7   1
     4     3     4   1
     5     4     5   1
     6     5     6   1
     7     5     8   1
     8     6     7   1
     9     6    28   1
    10     8     9  ar
    11     8    19  ar
    12     9    10   1
    13     9    15  ar
    14    10    11   1
    15    11    12   2
    16    11    21   1
    17    12    13   1
    18    13    14   2
    19    13    15   1
    20    15    16  ar
    21    16    17   1
    22    16    18  ar
    23    18    19  ar
    24    19    20   1
    25    21    22  ar
    26    21    27  ar
    27    22    23   1
    28    22    24  ar
    29    24    25  ar
    30    25    26  ar
    31    26    27  ar
    32     1    29   1
    33     1    30   1
    34     1    31   1
    35     2    32   1
    36     3    33   1
    37     3    34   1
    38     4    35   1
    39     4    36   1
    40     5    37   1
    41     6    38   1
    42     7    39   1
    43     7    40   1
    44    12    41   1
    45    17    42   1
    46    18    43   1
    47    20    44   1
    48    24    45   1
    49    25    46   1
    50    26    47   1
    51    27    48   1
    52    28    49   1
@<TRIPOS>SUBSTRUCTURE
     1  CPB      1

