@<TRIPOS>MOLECULE
3ebp_ligand_076
    49    52
SMALL
GAST_HUCK
****
This file was generated by PARSER (from files_GN.cpp)

@<TRIPOS>ATOM
      1 C1         38.5743   32.1703   28.5049 C.3         1 CPB      -0.0430
      2 N1         38.5929   33.6569   28.4614 N.4         1 CPB       0.2351
      3 C16        37.7437   34.2400   29.5531 C.3         1 CPB      -0.0305
      4 C15        37.6892   35.7761   29.4249 C.3         1 CPB      -0.0017
      5 C14        39.1192   36.3682   29.4718 C.3         1 CPB       0.0215
      6 C13        40.0150   35.7568   28.3379 C.3         1 CPB       0.1030
      7 C12        39.9829   34.2028   28.4231 C.3         1 CPB      -0.0040
      8 C8         39.0845   37.8658   29.5653 C.ar        1 CPB       0.0228
      9 C9         39.1499   38.4975   30.8432 C.ar        1 CPB       0.1322
     10 O1         39.1714   37.7122   31.9931 O.3         1 CPB      -0.2448
     11 C2         39.0280   38.2859   33.2104 C.2         1 CPB       0.1417
     12 C3         39.1400   39.6207   33.3641 C.2         1 CPB       0.0078
     13 C4         39.2458   40.4293   32.2758 C.2         1 CPB       0.0995
     14 O4         39.3232   41.6372   32.4777 O.2         1 CPB      -0.4249
     15 C10        39.1575   39.9130   30.9711 C.ar        1 CPB       0.0721
     16 C5         39.0528   40.6996   29.7956 C.ar        1 CPB       0.0869
     17 O5         39.0742   42.0587   29.8273 O.3         1 CPB      -0.3368
     18 C6         38.8703   40.0742   28.5404 C.ar        1 CPB      -0.0144
     19 C7         38.8792   38.6706   28.4101 C.ar        1 CPB       0.0802
     20 O7         38.7063   38.0837   27.1893 O.3         1 CPB      -0.3389
     21 C21        38.7637   37.4223   34.2720 C.ar        1 CPB       0.0440
     22 C22        37.6612   36.5207   34.2581 C.ar        1 CPB       0.0577
     23 CL1        36.5651   36.4011   32.9684 Cl          1 CPB      -0.0650
     24 C23        37.4057   35.6931   35.3744 C.ar        1 CPB      -0.0431
     25 C24        38.2522   35.7233   36.4909 C.ar        1 CPB      -0.0577
     26 C25        39.3568   36.5875   36.5069 C.ar        1 CPB      -0.0569
     27 C26        39.6045   37.4307   35.4126 C.ar        1 CPB      -0.0446
     28 O3         39.6924   36.1918   27.0206 O.3         1 CPB      -0.3849
     29 H1         37.5490   31.7918   28.4759 H           1 CPB       0.0778
     30 H2         39.0573   31.7968   29.4140 H           1 CPB       0.0778
     31 H3         39.0981   31.7649   27.6352 H           1 CPB       0.0778
     32 H4         38.1482   33.9329   27.5757 H           1 CPB       0.2031
     33 H5         38.1450   33.9708   30.5407 H           1 CPB       0.0816
     34 H6         36.7199   33.8568   29.4798 H           1 CPB       0.0816
     35 H7         37.0804   36.1812   30.2354 H           1 CPB       0.0335
     36 H8         37.2121   36.0116   28.4735 H           1 CPB       0.0335
     37 H9         39.5664   35.9608   30.3932 H           1 CPB       0.0427
     38 H10        41.0594   36.0856   28.5076 H           1 CPB       0.0665
     39 H11        40.5055   33.8171   27.5532 H           1 CPB       0.0841
     40 H12        40.5316   33.8810   29.3171 H           1 CPB       0.0841
     41 H13        39.0469   40.0231   34.2600 H           1 CPB       0.0418
     42 H14        39.9851   42.2955   30.1287 H           1 CPB       0.2482
     43 H15        38.7420   40.6692   27.7147 H           1 CPB       0.0388
     44 H16        37.9904   38.5804   26.7348 H           1 CPB       0.2468
     45 H17        36.5974   35.0666   35.3879 H           1 CPB       0.0633
     46 H18        38.0585   35.1283   37.2970 H           1 CPB       0.0647
     47 H19        39.9756   36.6083   37.3211 H           1 CPB       0.0629
     48 H20        40.4147   38.0509   35.4461 H           1 CPB       0.0661
     49 H21        38.7090   36.1180   26.9543 H           1 CPB       0.2102
@<TRIPOS>BOND
     1     1     2   1
     2     2     3   1
     3     2     7   1
     4     3     4   1
     5     4     5   1
     6     5     6   1
     7     5     8   1
     8     6     7   1
     9     6    28   1
    10     8     9  ar
    11     8    19  ar
    12     9    10   1
    13     9    15  ar
    14    10    11   1
    15    11    12   2
    16    11    21   1
    17    12    13   1
    18    13    14   2
    19    13    15   1
    20    15    16  ar
    21    16    17   1
    22    16    18  ar
    23    18    19  ar
    24    19    20   1
    25    21    22  ar
    26    21    27  ar
    27    22    23   1
    28    22    24  ar
    29    24    25  ar
    30    25    26  ar
    31    26    27  ar
    32     1    29   1
    33     1    30   1
    34     1    31   1
    35     2    32   1
    36     3    33   1
    37     3    34   1
    38     4    35   1
    39     4    36   1
    40     5    37   1
    41     6    38   1
    42     7    39   1
    43     7    40   1
    44    12    41   1
    45    17    42   1
    46    18    43   1
    47    20    44   1
    48    24    45   1
    49    25    46   1
    50    26    47   1
    51    27    48   1
    52    28    49   1
@<TRIPOS>SUBSTRUCTURE
     1  CPB      1

