@<TRIPOS>MOLECULE
3ebp_ligand_038
    49    52
SMALL
GAST_HUCK
****
This file was generated by PARSER (from files_GN.cpp)

@<TRIPOS>ATOM
      1 C1         39.5745   38.6466   34.5775 C.3         1 CPB      -0.0430
      2 N1         39.7042   38.6675   33.0919 N.4         1 CPB       0.2351
      3 C16        38.5922   37.9225   32.4176 C.3         1 CPB      -0.0305
      4 C15        38.7945   37.8570   30.8821 C.3         1 CPB      -0.0017
      5 C14        38.9940   39.2825   30.2800 C.3         1 CPB       0.0215
      6 C13        40.1234   40.0626   31.0272 C.3         1 CPB       0.1030
      7 C12        39.8693   40.0590   32.5579 C.3         1 CPB      -0.0040
      8 C8         39.1007   39.3492   28.7710 C.ar        1 CPB       0.0228
      9 C9         40.0582   38.5950   28.0333 C.ar        1 CPB       0.1322
     10 O1         40.9215   37.7450   28.6986 O.3         1 CPB      -0.2448
     11 C2         41.9970   37.2307   28.0554 C.2         1 CPB       0.1417
     12 C3         42.0846   37.2631   26.7101 C.2         1 CPB       0.0078
     13 C4         41.1319   37.9074   25.9819 C.2         1 CPB       0.0995
     14 O4         41.1959   37.8105   24.7623 O.2         1 CPB      -0.4249
     15 C10        40.1491   38.6845   26.6151 C.ar        1 CPB       0.0721
     16 C5         39.2669   39.5532   25.9261 C.ar        1 CPB       0.0869
     17 O5         39.3300   39.6925   24.5703 O.3         1 CPB      -0.3368
     18 C6         38.3191   40.3043   26.6443 C.ar        1 CPB      -0.0144
     19 C7         38.2409   40.2145   28.0419 C.ar        1 CPB       0.0802
     20 O7         37.3302   41.0202   28.6387 O.3         1 CPB      -0.3389
     21 C21        42.9805   36.6725   28.8614 C.ar        1 CPB       0.0440
     22 C22        44.2852   37.2277   28.9774 C.ar        1 CPB       0.0577
     23 CL1        44.7619   38.6343   28.1534 Cl          1 CPB      -0.0650
     24 C23        45.2306   36.6318   29.8342 C.ar        1 CPB      -0.0431
     25 C24        44.8925   35.4858   30.5787 C.ar        1 CPB      -0.0577
     26 C25        43.6012   34.9406   30.4775 C.ar        1 CPB      -0.0569
     27 C26        42.6483   35.5285   29.6299 C.ar        1 CPB      -0.0446
     28 O3         41.4244   39.5207   30.7928 O.3         1 CPB      -0.3849
     29 H1         39.5519   37.6154   34.9399 H           1 CPB       0.0778
     30 H2         38.6618   39.1510   34.9072 H           1 CPB       0.0778
     31 H3         40.4312   39.1365   35.0448 H           1 CPB       0.0778
     32 H4         40.5681   38.1677   32.8739 H           1 CPB       0.2031
     33 H5         37.6316   38.3987   32.6316 H           1 CPB       0.0816
     34 H6         38.5535   36.8983   32.7953 H           1 CPB       0.0816
     35 H7         37.9170   37.3903   30.4210 H           1 CPB       0.0335
     36 H8         39.6578   37.2191   30.6900 H           1 CPB       0.0335
     37 H9         38.0705   39.7969   30.5698 H           1 CPB       0.0427
     38 H10        40.1291   41.0994   30.6848 H           1 CPB       0.0665
     39 H11        40.7169   40.5462   33.0457 H           1 CPB       0.0841
     40 H12        38.9783   40.6565   32.7798 H           1 CPB       0.0841
     41 H13        42.8602   36.8339   26.2541 H           1 CPB       0.0418
     42 H14        38.5711   40.2544   24.2902 H           1 CPB       0.2482
     43 H15        37.6884   40.9352   26.1425 H           1 CPB       0.0388
     44 H16        37.8283   41.5049   29.3362 H           1 CPB       0.2468
     45 H17        46.1710   37.0244   29.9243 H           1 CPB       0.0633
     46 H18        45.5846   35.0548   31.1950 H           1 CPB       0.0647
     47 H19        43.3589   34.1089   31.0178 H           1 CPB       0.0629
     48 H20        41.7183   35.1073   29.5681 H           1 CPB       0.0661
     49 H21        41.5978   39.6720   29.8303 H           1 CPB       0.2102
@<TRIPOS>BOND
     1     1     2   1
     2     2     3   1
     3     2     7   1
     4     3     4   1
     5     4     5   1
     6     5     6   1
     7     5     8   1
     8     6     7   1
     9     6    28   1
    10     8     9  ar
    11     8    19  ar
    12     9    10   1
    13     9    15  ar
    14    10    11   1
    15    11    12   2
    16    11    21   1
    17    12    13   1
    18    13    14   2
    19    13    15   1
    20    15    16  ar
    21    16    17   1
    22    16    18  ar
    23    18    19  ar
    24    19    20   1
    25    21    22  ar
    26    21    27  ar
    27    22    23   1
    28    22    24  ar
    29    24    25  ar
    30    25    26  ar
    31    26    27  ar
    32     1    29   1
    33     1    30   1
    34     1    31   1
    35     2    32   1
    36     3    33   1
    37     3    34   1
    38     4    35   1
    39     4    36   1
    40     5    37   1
    41     6    38   1
    42     7    39   1
    43     7    40   1
    44    12    41   1
    45    17    42   1
    46    18    43   1
    47    20    44   1
    48    24    45   1
    49    25    46   1
    50    26    47   1
    51    27    48   1
    52    28    49   1
@<TRIPOS>SUBSTRUCTURE
     1  CPB      1

