@<TRIPOS>MOLECULE
3ebp_ligand_081
    49    52
SMALL
GAST_HUCK
****
This file was generated by PARSER (from files_GN.cpp)

@<TRIPOS>ATOM
      1 C1         38.8990   38.9522   20.9595 C.3         1 CPB      -0.0430
      2 N1         39.8518   39.2591   22.0654 N.4         1 CPB       0.2351
      3 C16        39.7267   40.6621   22.5546 C.3         1 CPB      -0.0305
      4 C15        40.8207   40.9839   23.6212 C.3         1 CPB      -0.0017
      5 C14        40.8018   40.0036   24.8439 C.3         1 CPB       0.0215
      6 C13        40.8437   38.5432   24.2741 C.3         1 CPB       0.1030
      7 C12        39.7727   38.2744   23.1825 C.3         1 CPB      -0.0040
      8 C8         41.7817   40.2463   25.9895 C.ar        1 CPB       0.0228
      9 C9         41.6501   39.5023   27.2071 C.ar        1 CPB       0.1322
     10 O1         40.6393   38.5562   27.3364 O.3         1 CPB      -0.2448
     11 C2         40.5295   37.7944   28.4536 C.2         1 CPB       0.1417
     12 C3         41.3314   38.0047   29.5157 C.2         1 CPB       0.0078
     13 C4         42.2986   38.9528   29.4730 C.2         1 CPB       0.0995
     14 O4         42.9930   39.0819   30.4733 O.2         1 CPB      -0.4249
     15 C10        42.5079   39.7280   28.3239 C.ar        1 CPB       0.0721
     16 C5         43.5085   40.7225   28.2364 C.ar        1 CPB       0.0869
     17 O5         44.3500   41.0105   29.2627 O.3         1 CPB      -0.3368
     18 C6         43.6448   41.4703   27.0604 C.ar        1 CPB      -0.0144
     19 C7         42.8029   41.2433   25.9568 C.ar        1 CPB       0.0802
     20 O7         43.0223   42.0601   24.9014 O.3         1 CPB      -0.3389
     21 C21        39.5435   36.8103   28.4781 C.ar        1 CPB       0.0440
     22 C22        39.5111   35.7382   27.5437 C.ar        1 CPB       0.0577
     23 CL1        40.7438   35.4507   26.4134 Cl          1 CPB      -0.0650
     24 C23        38.4826   34.7752   27.6049 C.ar        1 CPB      -0.0431
     25 C24        37.5028   34.8434   28.6068 C.ar        1 CPB      -0.0577
     26 C25        37.5449   35.8726   29.5603 C.ar        1 CPB      -0.0569
     27 C26        38.5505   36.8523   29.4885 C.ar        1 CPB      -0.0446
     28 O3         42.1339   38.1631   23.7974 O.3         1 CPB      -0.3849
     29 H1         39.0578   39.6379   20.1241 H           1 CPB       0.0778
     30 H2         37.8599   39.0384   21.2823 H           1 CPB       0.0778
     31 H3         39.0606   37.9367   20.5851 H           1 CPB       0.0778
     32 H4         40.7887   39.1641   21.6668 H           1 CPB       0.2031
     33 H5         38.7430   40.8440   22.9818 H           1 CPB       0.0816
     34 H6         39.8569   41.3495   21.7206 H           1 CPB       0.0816
     35 H7         40.6648   42.0106   23.9589 H           1 CPB       0.0335
     36 H8         41.7890   40.9291   23.1186 H           1 CPB       0.0335
     37 H9         39.8146   40.1370   25.2935 H           1 CPB       0.0427
     38 H10        40.6076   37.8396   25.0597 H           1 CPB       0.0665
     39 H11        39.9123   37.2594   22.7974 H           1 CPB       0.0841
     40 H12        38.7827   38.3120   23.6415 H           1 CPB       0.0841
     41 H13        41.2285   37.4469   30.3359 H           1 CPB       0.0418
     42 H14        43.8779   41.6861   29.7895 H           1 CPB       0.2482
     43 H15        44.3677   42.1960   27.0244 H           1 CPB       0.0388
     44 H16        43.6568   41.5807   24.3288 H           1 CPB       0.2468
     45 H17        38.4561   33.9996   26.9363 H           1 CPB       0.0633
     46 H18        36.7683   34.1329   28.6540 H           1 CPB       0.0647
     47 H19        36.8458   35.9121   30.3053 H           1 CPB       0.0629
     48 H20        38.5488   37.5992   30.1881 H           1 CPB       0.0661
     49 H21        42.6481   38.9902   23.6719 H           1 CPB       0.2102
@<TRIPOS>BOND
     1     1     2   1
     2     2     3   1
     3     2     7   1
     4     3     4   1
     5     4     5   1
     6     5     6   1
     7     5     8   1
     8     6     7   1
     9     6    28   1
    10     8     9  ar
    11     8    19  ar
    12     9    10   1
    13     9    15  ar
    14    10    11   1
    15    11    12   2
    16    11    21   1
    17    12    13   1
    18    13    14   2
    19    13    15   1
    20    15    16  ar
    21    16    17   1
    22    16    18  ar
    23    18    19  ar
    24    19    20   1
    25    21    22  ar
    26    21    27  ar
    27    22    23   1
    28    22    24  ar
    29    24    25  ar
    30    25    26  ar
    31    26    27  ar
    32     1    29   1
    33     1    30   1
    34     1    31   1
    35     2    32   1
    36     3    33   1
    37     3    34   1
    38     4    35   1
    39     4    36   1
    40     5    37   1
    41     6    38   1
    42     7    39   1
    43     7    40   1
    44    12    41   1
    45    17    42   1
    46    18    43   1
    47    20    44   1
    48    24    45   1
    49    25    46   1
    50    26    47   1
    51    27    48   1
    52    28    49   1
@<TRIPOS>SUBSTRUCTURE
     1  CPB      1

