@<TRIPOS>MOLECULE
3ebp_ligand_068
    49    52
SMALL
GAST_HUCK
****
This file was generated by PARSER (from files_GN.cpp)

@<TRIPOS>ATOM
      1 C1         39.4095   38.4690   33.3207 C.3         1 CPB      -0.0430
      2 N1         39.3624   37.7350   32.0264 N.4         1 CPB       0.2351
      3 C16        37.9680   37.5292   31.5276 C.3         1 CPB      -0.0305
      4 C15        37.9985   36.5742   30.3098 C.3         1 CPB      -0.0017
      5 C14        38.8586   37.1621   29.1444 C.3         1 CPB       0.0215
      6 C13        40.2932   37.4831   29.6839 C.3         1 CPB       0.1030
      7 C12        40.2489   38.3367   30.9820 C.3         1 CPB      -0.0040
      8 C8         38.9017   36.4177   27.8282 C.ar        1 CPB       0.0228
      9 C9         39.2379   37.1356   26.6405 C.ar        1 CPB       0.1322
     10 O1         39.5402   38.4899   26.7257 O.3         1 CPB      -0.2448
     11 C2         39.7768   39.2155   25.6039 C.2         1 CPB       0.1417
     12 C3         39.7980   38.6311   24.3876 C.2         1 CPB       0.0078
     13 C4         39.5820   37.2976   24.2570 C.2         1 CPB       0.0995
     14 O4         39.6642   36.8271   23.1285 O.2         1 CPB      -0.4249
     15 C10        39.2734   36.4981   25.3679 C.ar        1 CPB       0.0721
     16 C5         39.0050   35.1125   25.2853 C.ar        1 CPB       0.0869
     17 O5         39.0442   34.4406   24.1063 O.3         1 CPB      -0.3368
     18 C6         38.6878   34.3912   26.4449 C.ar        1 CPB      -0.0144
     19 C7         38.6296   35.0274   27.6971 C.ar        1 CPB       0.0802
     20 O7         38.3333   34.2202   28.7405 O.3         1 CPB      -0.3389
     21 C21        39.9830   40.5833   25.7568 C.ar        1 CPB       0.0440
     22 C22        41.0299   41.1076   26.5653 C.ar        1 CPB       0.0577
     23 CL1        42.1707   40.1268   27.3543 Cl          1 CPB      -0.0650
     24 C23        41.2040   42.5032   26.6769 C.ar        1 CPB      -0.0431
     25 C24        40.3504   43.3865   25.9952 C.ar        1 CPB      -0.0577
     26 C25        39.3142   42.8815   25.1952 C.ar        1 CPB      -0.0569
     27 C26        39.1308   41.4936   25.0784 C.ar        1 CPB      -0.0446
     28 O3         41.0417   36.2893   29.9218 O.3         1 CPB      -0.3849
     29 H1         38.8292   37.9362   34.0762 H           1 CPB       0.0778
     30 H2         39.0127   39.4822   33.2194 H           1 CPB       0.0778
     31 H3         40.4397   38.5284   33.6832 H           1 CPB       0.0778
     32 H4         39.7387   36.8049   32.2186 H           1 CPB       0.2031
     33 H5         37.5057   38.4815   31.2460 H           1 CPB       0.0816
     34 H6         37.3451   37.0808   32.3070 H           1 CPB       0.0816
     35 H7         36.9771   36.3840   29.9732 H           1 CPB       0.0335
     36 H8         38.4292   35.6334   30.6586 H           1 CPB       0.0335
     37 H9         38.3747   38.1188   28.9242 H           1 CPB       0.0427
     38 H10        40.8472   38.0609   28.9459 H           1 CPB       0.0665
     39 H11        41.2699   38.4166   31.3655 H           1 CPB       0.0841
     40 H12        39.9083   39.3477   30.7355 H           1 CPB       0.0841
     41 H13        39.9781   39.1788   23.5742 H           1 CPB       0.0418
     42 H14        39.5756   33.6352   24.2805 H           1 CPB       0.2482
     43 H15        38.4931   33.3876   26.3741 H           1 CPB       0.0388
     44 H16        37.3673   34.3301   28.8810 H           1 CPB       0.2468
     45 H17        41.9621   42.8889   27.2459 H           1 CPB       0.0633
     46 H18        40.4837   44.3973   26.0780 H           1 CPB       0.0647
     47 H19        38.6918   43.5204   24.6956 H           1 CPB       0.0629
     48 H20        38.3623   41.1495   24.4970 H           1 CPB       0.0661
     49 H21        41.2299   35.9256   29.0304 H           1 CPB       0.2102
@<TRIPOS>BOND
     1     1     2   1
     2     2     3   1
     3     2     7   1
     4     3     4   1
     5     4     5   1
     6     5     6   1
     7     5     8   1
     8     6     7   1
     9     6    28   1
    10     8     9  ar
    11     8    19  ar
    12     9    10   1
    13     9    15  ar
    14    10    11   1
    15    11    12   2
    16    11    21   1
    17    12    13   1
    18    13    14   2
    19    13    15   1
    20    15    16  ar
    21    16    17   1
    22    16    18  ar
    23    18    19  ar
    24    19    20   1
    25    21    22  ar
    26    21    27  ar
    27    22    23   1
    28    22    24  ar
    29    24    25  ar
    30    25    26  ar
    31    26    27  ar
    32     1    29   1
    33     1    30   1
    34     1    31   1
    35     2    32   1
    36     3    33   1
    37     3    34   1
    38     4    35   1
    39     4    36   1
    40     5    37   1
    41     6    38   1
    42     7    39   1
    43     7    40   1
    44    12    41   1
    45    17    42   1
    46    18    43   1
    47    20    44   1
    48    24    45   1
    49    25    46   1
    50    26    47   1
    51    27    48   1
    52    28    49   1
@<TRIPOS>SUBSTRUCTURE
     1  CPB      1

