@<TRIPOS>MOLECULE
3ebp_ligand_058
    49    52
SMALL
GAST_HUCK
****
This file was generated by PARSER (from files_GN.cpp)

@<TRIPOS>ATOM
      1 C1         36.9341   38.7976   42.4912 C.3         1 CPB      -0.0430
      2 N1         36.8944   38.4607   41.0375 N.4         1 CPB       0.2351
      3 C16        36.6816   39.6595   40.1594 C.3         1 CPB      -0.0305
      4 C15        36.4687   39.2413   38.6743 C.3         1 CPB      -0.0017
      5 C14        37.6168   38.3193   38.1608 C.3         1 CPB       0.0215
      6 C13        37.8784   37.1404   39.1539 C.3         1 CPB       0.1030
      7 C12        38.0796   37.6636   40.6018 C.3         1 CPB      -0.0040
      8 C8         37.4930   37.9273   36.6978 C.ar        1 CPB       0.0228
      9 C9         38.2954   38.5600   35.6983 C.ar        1 CPB       0.1322
     10 O1         39.1799   39.5651   36.0631 O.3         1 CPB      -0.2448
     11 C2         39.7981   40.3125   35.1206 C.2         1 CPB       0.1417
     12 C3         39.7331   39.9927   33.8145 C.2         1 CPB       0.0078
     13 C4         38.9860   38.9317   33.4085 C.2         1 CPB       0.0995
     14 O4         39.0103   38.6554   32.2151 O.2         1 CPB      -0.4249
     15 C10        38.2060   38.2022   34.3196 C.ar        1 CPB       0.0721
     16 C5         37.3253   37.1645   33.9409 C.ar        1 CPB       0.0869
     17 O5         37.1801   36.7533   32.6549 O.3         1 CPB      -0.3368
     18 C6         36.5108   36.5504   34.8986 C.ar        1 CPB      -0.0144
     19 C7         36.5711   36.9344   36.2535 C.ar        1 CPB       0.0802
     20 O7         35.6467   36.3680   37.0600 O.3         1 CPB      -0.3389
     21 C21        40.5717   41.3711   35.5634 C.ar        1 CPB       0.0440
     22 C22        40.2592   42.7267   35.2587 C.ar        1 CPB       0.0577
     23 CL1        38.8715   43.1750   34.3890 Cl          1 CPB      -0.0650
     24 C23        41.1060   43.7592   35.7135 C.ar        1 CPB      -0.0431
     25 C24        42.2577   43.4607   36.4578 C.ar        1 CPB      -0.0577
     26 C25        42.5727   42.1252   36.7617 C.ar        1 CPB      -0.0569
     27 C26        41.7298   41.0890   36.3258 C.ar        1 CPB      -0.0446
     28 O3         36.8133   36.1957   39.2202 O.3         1 CPB      -0.3849
     29 H1         36.0138   39.3006   42.7822 H           1 CPB       0.0778
     30 H2         37.7803   39.4443   42.7316 H           1 CPB       0.0778
     31 H3         37.0012   37.8845   43.0878 H           1 CPB       0.0778
     32 H4         36.0706   37.8692   40.9112 H           1 CPB       0.2031
     33 H5         37.5458   40.3335   40.2298 H           1 CPB       0.0816
     34 H6         35.7992   40.2120   40.4870 H           1 CPB       0.0816
     35 H7         36.4342   40.1506   38.0641 H           1 CPB       0.0335
     36 H8         35.5067   38.7312   38.5854 H           1 CPB       0.0335
     37 H9         38.5102   38.9367   38.2676 H           1 CPB       0.0427
     38 H10        38.7774   36.6183   38.8255 H           1 CPB       0.0665
     39 H11        38.2154   36.8011   41.2600 H           1 CPB       0.0841
     40 H12        38.9927   38.2608   40.6494 H           1 CPB       0.0841
     41 H13        40.2426   40.5265   33.1440 H           1 CPB       0.0418
     42 H14        37.8269   36.0242   32.5497 H           1 CPB       0.2482
     43 H15        35.8482   35.8280   34.6028 H           1 CPB       0.0388
     44 H16        35.8679   35.4110   37.0804 H           1 CPB       0.2468
     45 H17        40.8878   44.7375   35.5020 H           1 CPB       0.0633
     46 H18        42.8722   44.2158   36.7771 H           1 CPB       0.0647
     47 H19        43.4190   41.9087   37.2947 H           1 CPB       0.0629
     48 H20        41.9858   40.1223   36.5474 H           1 CPB       0.0661
     49 H21        37.2023   35.3600   39.5579 H           1 CPB       0.2102
@<TRIPOS>BOND
     1     1     2   1
     2     2     3   1
     3     2     7   1
     4     3     4   1
     5     4     5   1
     6     5     6   1
     7     5     8   1
     8     6     7   1
     9     6    28   1
    10     8     9  ar
    11     8    19  ar
    12     9    10   1
    13     9    15  ar
    14    10    11   1
    15    11    12   2
    16    11    21   1
    17    12    13   1
    18    13    14   2
    19    13    15   1
    20    15    16  ar
    21    16    17   1
    22    16    18  ar
    23    18    19  ar
    24    19    20   1
    25    21    22  ar
    26    21    27  ar
    27    22    23   1
    28    22    24  ar
    29    24    25  ar
    30    25    26  ar
    31    26    27  ar
    32     1    29   1
    33     1    30   1
    34     1    31   1
    35     2    32   1
    36     3    33   1
    37     3    34   1
    38     4    35   1
    39     4    36   1
    40     5    37   1
    41     6    38   1
    42     7    39   1
    43     7    40   1
    44    12    41   1
    45    17    42   1
    46    18    43   1
    47    20    44   1
    48    24    45   1
    49    25    46   1
    50    26    47   1
    51    27    48   1
    52    28    49   1
@<TRIPOS>SUBSTRUCTURE
     1  CPB      1

