@<TRIPOS>MOLECULE
3ebp_ligand_057
    49    52
SMALL
GAST_HUCK
****
This file was generated by PARSER (from files_GN.cpp)

@<TRIPOS>ATOM
      1 C1         39.1031   36.3425   31.2734 C.3         1 CPB      -0.0430
      2 N1         39.2177   37.7817   30.9270 N.4         1 CPB       0.2351
      3 C16        39.0346   38.0369   29.4647 C.3         1 CPB      -0.0305
      4 C15        39.2029   39.5393   29.1309 C.3         1 CPB      -0.0017
      5 C14        38.2277   40.4450   29.9674 C.3         1 CPB       0.0215
      6 C13        38.5191   40.1277   31.4747 C.3         1 CPB       0.1030
      7 C12        38.3155   38.6159   31.7768 C.3         1 CPB      -0.0040
      8 C8         38.1705   41.8728   29.4704 C.ar        1 CPB       0.0228
      9 C9         38.3185   43.0466   30.2688 C.ar        1 CPB       0.1322
     10 O1         38.4732   42.9253   31.6334 O.3         1 CPB      -0.2448
     11 C2         38.4476   44.0065   32.4481 C.2         1 CPB       0.1417
     12 C3         38.4251   45.2556   31.9323 C.2         1 CPB       0.0078
     13 C4         38.4140   45.4436   30.5855 C.2         1 CPB       0.0995
     14 O4         38.5030   46.5948   30.1815 O.2         1 CPB      -0.4249
     15 C10        38.2797   44.3573   29.7038 C.ar        1 CPB       0.0721
     16 C5         38.0694   44.4935   28.3092 C.ar        1 CPB       0.0869
     17 O5         37.9306   45.6960   27.7029 O.3         1 CPB      -0.3368
     18 C6         37.8562   43.3563   27.5183 C.ar        1 CPB      -0.0144
     19 C7         37.8778   42.0714   28.0880 C.ar        1 CPB       0.0802
     20 O7         37.5404   41.0464   27.2609 O.3         1 CPB      -0.3389
     21 C21        38.3242   43.7671   33.8178 C.ar        1 CPB       0.0440
     22 C22        39.3446   44.0839   34.7635 C.ar        1 CPB       0.0577
     23 CL1        40.8615   44.6991   34.3299 Cl          1 CPB      -0.0650
     24 C23        39.1175   43.8548   36.1367 C.ar        1 CPB      -0.0431
     25 C24        37.9055   43.2970   36.5789 C.ar        1 CPB      -0.0577
     26 C25        36.9064   42.9539   35.6528 C.ar        1 CPB      -0.0569
     27 C26        37.1172   43.1864   34.2819 C.ar        1 CPB      -0.0446
     28 O3         39.8608   40.4860   31.8349 O.3         1 CPB      -0.3849
     29 H1         39.7940   35.7525   30.6713 H           1 CPB       0.0778
     30 H2         38.0848   35.9616   31.1202 H           1 CPB       0.0778
     31 H3         39.3700   36.1868   32.3248 H           1 CPB       0.0778
     32 H4         40.1765   38.0614   31.1525 H           1 CPB       0.2031
     33 H5         38.0394   37.7017   29.1394 H           1 CPB       0.0816
     34 H6         39.7789   37.4617   28.9025 H           1 CPB       0.0816
     35 H7         39.0314   39.6332   28.0561 H           1 CPB       0.0335
     36 H8         40.2443   39.8323   29.3131 H           1 CPB       0.0335
     37 H9         37.2117   40.0606   29.8031 H           1 CPB       0.0427
     38 H10        37.8234   40.6839   32.1067 H           1 CPB       0.0665
     39 H11        38.5342   38.4437   32.8324 H           1 CPB       0.0841
     40 H12        37.2672   38.3509   31.6045 H           1 CPB       0.0841
     41 H13        38.3549   46.0488   32.5409 H           1 CPB       0.0418
     42 H14        37.0774   46.0099   28.0534 H           1 CPB       0.2482
     43 H15        37.6600   43.4597   26.5124 H           1 CPB       0.0388
     44 H16        38.1908   41.0550   26.5251 H           1 CPB       0.2468
     45 H17        39.8389   44.0927   36.8245 H           1 CPB       0.0633
     46 H18        37.7589   43.1343   37.5804 H           1 CPB       0.0647
     47 H19        36.0368   42.5442   35.9787 H           1 CPB       0.0629
     48 H20        36.3664   42.9423   33.6340 H           1 CPB       0.0661
     49 H21        39.8934   40.4594   32.8160 H           1 CPB       0.2102
@<TRIPOS>BOND
     1     1     2   1
     2     2     3   1
     3     2     7   1
     4     3     4   1
     5     4     5   1
     6     5     6   1
     7     5     8   1
     8     6     7   1
     9     6    28   1
    10     8     9  ar
    11     8    19  ar
    12     9    10   1
    13     9    15  ar
    14    10    11   1
    15    11    12   2
    16    11    21   1
    17    12    13   1
    18    13    14   2
    19    13    15   1
    20    15    16  ar
    21    16    17   1
    22    16    18  ar
    23    18    19  ar
    24    19    20   1
    25    21    22  ar
    26    21    27  ar
    27    22    23   1
    28    22    24  ar
    29    24    25  ar
    30    25    26  ar
    31    26    27  ar
    32     1    29   1
    33     1    30   1
    34     1    31   1
    35     2    32   1
    36     3    33   1
    37     3    34   1
    38     4    35   1
    39     4    36   1
    40     5    37   1
    41     6    38   1
    42     7    39   1
    43     7    40   1
    44    12    41   1
    45    17    42   1
    46    18    43   1
    47    20    44   1
    48    24    45   1
    49    25    46   1
    50    26    47   1
    51    27    48   1
    52    28    49   1
@<TRIPOS>SUBSTRUCTURE
     1  CPB      1

