@<TRIPOS>MOLECULE
3ebp_ligand_029
    49    52
SMALL
GAST_HUCK
****
This file was generated by PARSER (from files_GN.cpp)

@<TRIPOS>ATOM
      1 C1         38.6850   31.0044   27.2295 C.3         1 CPB      -0.0430
      2 N1         38.8640   32.4825   27.2536 N.4         1 CPB       0.2351
      3 C16        37.8540   33.1955   26.4219 C.3         1 CPB      -0.0305
      4 C15        38.2755   34.6775   26.2916 C.3         1 CPB      -0.0017
      5 C14        38.3731   35.4013   27.6769 C.3         1 CPB       0.0215
      6 C13        39.2984   34.5673   28.6280 C.3         1 CPB       0.1030
      7 C12        38.9414   33.0508   28.6348 C.3         1 CPB      -0.0040
      8 C8         38.7247   36.8797   27.6798 C.ar        1 CPB       0.0228
      9 C9         38.5624   37.6385   28.8847 C.ar        1 CPB       0.1322
     10 O1         38.0949   37.0327   30.0503 O.3         1 CPB      -0.2448
     11 C2         37.8826   37.7250   31.2084 C.2         1 CPB       0.1417
     12 C3         38.1280   39.0561   31.2142 C.2         1 CPB       0.0078
     13 C4         38.6676   39.6899   30.1412 C.2         1 CPB       0.0995
     14 O4         39.0216   40.8532   30.3051 O.2         1 CPB      -0.4249
     15 C10        38.8690   39.0292   28.9309 C.ar        1 CPB       0.0721
     16 C5         39.3309   39.6804   27.7643 C.ar        1 CPB       0.0869
     17 O5         39.6231   41.0065   27.7130 O.3         1 CPB      -0.3368
     18 C6         39.4783   38.9575   26.5746 C.ar        1 CPB      -0.0144
     19 C7         39.1901   37.5836   26.5286 C.ar        1 CPB       0.0802
     20 O7         39.3836   37.0225   25.3055 O.3         1 CPB      -0.3389
     21 C21        37.3938   37.0197   32.3503 C.ar        1 CPB       0.0440
     22 C22        36.8618   35.6882   32.2951 C.ar        1 CPB       0.0577
     23 CL1        36.7056   34.7496   30.8896 Cl          1 CPB      -0.0650
     24 C23        36.3609   35.0547   33.4528 C.ar        1 CPB      -0.0431
     25 C24        36.3306   35.7254   34.6846 C.ar        1 CPB      -0.0577
     26 C25        36.8687   37.0077   34.7831 C.ar        1 CPB      -0.0569
     27 C26        37.4224   37.6248   33.6442 C.ar        1 CPB      -0.0446
     28 O3         40.6674   34.7502   28.2717 O.3         1 CPB      -0.3849
     29 H1         38.7887   30.6333   26.2066 H           1 CPB       0.0778
     30 H2         37.7017   30.7128   27.6078 H           1 CPB       0.0778
     31 H3         39.4566   30.5140   27.8287 H           1 CPB       0.0778
     32 H4         39.7673   32.6549   26.8126 H           1 CPB       0.2031
     33 H5         36.8533   33.1251   26.8537 H           1 CPB       0.0816
     34 H6         37.8179   32.7695   25.4170 H           1 CPB       0.0816
     35 H7         37.5604   35.1958   25.6476 H           1 CPB       0.0335
     36 H8         39.2522   34.6766   25.8024 H           1 CPB       0.0335
     37 H9         37.3577   35.3500   28.0813 H           1 CPB       0.0427
     38 H10        39.1953   34.9243   29.6554 H           1 CPB       0.0665
     39 H11        39.7045   32.5236   29.2120 H           1 CPB       0.0841
     40 H12        37.9870   32.9077   29.1465 H           1 CPB       0.0841
     41 H13        37.8918   39.6121   32.0011 H           1 CPB       0.0418
     42 H14        40.5588   41.0617   28.0053 H           1 CPB       0.2482
     43 H15        39.8001   39.4417   25.7273 H           1 CPB       0.0388
     44 H16        40.2951   36.6565   25.3357 H           1 CPB       0.2468
     45 H17        35.9870   34.1017   33.4146 H           1 CPB       0.0633
     46 H18        35.9266   35.2732   35.5047 H           1 CPB       0.0647
     47 H19        36.8655   37.4959   35.6861 H           1 CPB       0.0629
     48 H20        37.8531   38.5367   33.7975 H           1 CPB       0.0661
     49 H21        41.1605   34.5853   29.1024 H           1 CPB       0.2102
@<TRIPOS>BOND
     1     1     2   1
     2     2     3   1
     3     2     7   1
     4     3     4   1
     5     4     5   1
     6     5     6   1
     7     5     8   1
     8     6     7   1
     9     6    28   1
    10     8     9  ar
    11     8    19  ar
    12     9    10   1
    13     9    15  ar
    14    10    11   1
    15    11    12   2
    16    11    21   1
    17    12    13   1
    18    13    14   2
    19    13    15   1
    20    15    16  ar
    21    16    17   1
    22    16    18  ar
    23    18    19  ar
    24    19    20   1
    25    21    22  ar
    26    21    27  ar
    27    22    23   1
    28    22    24  ar
    29    24    25  ar
    30    25    26  ar
    31    26    27  ar
    32     1    29   1
    33     1    30   1
    34     1    31   1
    35     2    32   1
    36     3    33   1
    37     3    34   1
    38     4    35   1
    39     4    36   1
    40     5    37   1
    41     6    38   1
    42     7    39   1
    43     7    40   1
    44    12    41   1
    45    17    42   1
    46    18    43   1
    47    20    44   1
    48    24    45   1
    49    25    46   1
    50    26    47   1
    51    27    48   1
    52    28    49   1
@<TRIPOS>SUBSTRUCTURE
     1  CPB      1

