@<TRIPOS>MOLECULE
3ebp_ligand_066
    49    52
SMALL
GAST_HUCK
****
This file was generated by PARSER (from files_GN.cpp)

@<TRIPOS>ATOM
      1 C1         37.8282   40.3736   27.7509 C.3         1 CPB      -0.0430
      2 N1         38.7412   40.3763   26.5735 N.4         1 CPB       0.2351
      3 C16        38.5598   41.5890   25.7160 C.3         1 CPB      -0.0305
      4 C15        39.4202   41.4988   24.4287 C.3         1 CPB      -0.0017
      5 C14        40.9239   41.2403   24.7562 C.3         1 CPB       0.0215
      6 C13        41.1049   40.0371   25.7403 C.3         1 CPB       0.1030
      7 C12        40.1707   40.1786   26.9739 C.3         1 CPB      -0.0040
      8 C8         41.8077   41.1738   23.5285 C.ar        1 CPB       0.0228
      9 C9         42.8599   42.1156   23.3308 C.ar        1 CPB       0.1322
     10 O1         43.0848   43.1081   24.2801 O.3         1 CPB      -0.2448
     11 C2         43.9553   44.1135   24.0168 C.2         1 CPB       0.1417
     12 C3         44.7744   44.0807   22.9434 C.2         1 CPB       0.0078
     13 C4         44.6867   43.0609   22.0524 C.2         1 CPB       0.0995
     14 O4         45.4790   43.0670   21.1192 O.2         1 CPB      -0.4249
     15 C10        43.7008   42.0659   22.1768 C.ar        1 CPB       0.0721
     16 C5         43.4876   41.0497   21.2160 C.ar        1 CPB       0.0869
     17 O5         44.2485   40.9499   20.0914 O.3         1 CPB      -0.3368
     18 C6         42.4546   40.1203   21.4032 C.ar        1 CPB      -0.0144
     19 C7         41.6200   40.1827   22.5275 C.ar        1 CPB       0.0802
     20 O7         40.6347   39.2617   22.5749 O.3         1 CPB      -0.3389
     21 C21        44.0144   45.1524   24.9326 C.ar        1 CPB       0.0440
     22 C22        43.7104   46.4976   24.5834 C.ar        1 CPB       0.0577
     23 CL1        43.2232   46.9519   23.0202 Cl          1 CPB      -0.0650
     24 C23        43.7798   47.5100   25.5633 C.ar        1 CPB      -0.0431
     25 C24        44.1450   47.1999   26.8850 C.ar        1 CPB      -0.0577
     26 C25        44.4502   45.8744   27.2356 C.ar        1 CPB      -0.0569
     27 C26        44.3694   44.8544   26.2703 C.ar        1 CPB      -0.0446
     28 O3         40.8545   38.7719   25.1345 O.3         1 CPB      -0.3849
     29 H1         36.7888   40.4347   27.4252 H           1 CPB       0.0778
     30 H2         38.0346   41.2129   28.4188 H           1 CPB       0.0778
     31 H3         37.9397   39.4455   28.3142 H           1 CPB       0.0778
     32 H4         38.4679   39.5723   25.9986 H           1 CPB       0.2031
     33 H5         38.8260   42.4942   26.2731 H           1 CPB       0.0816
     34 H6         37.5104   41.6793   25.4163 H           1 CPB       0.0816
     35 H7         39.3234   42.4350   23.8730 H           1 CPB       0.0335
     36 H8         39.0096   40.7021   23.8157 H           1 CPB       0.0335
     37 H9         41.2164   42.1136   25.3483 H           1 CPB       0.0427
     38 H10        42.1420   40.0276   26.0915 H           1 CPB       0.0665
     39 H11        40.2655   39.2737   27.5815 H           1 CPB       0.0841
     40 H12        40.5086   41.0204   27.5858 H           1 CPB       0.0841
     41 H13        45.4435   44.8050   22.8069 H           1 CPB       0.0418
     42 H14        43.6143   40.8583   19.3490 H           1 CPB       0.2482
     43 H15        42.2985   39.3984   20.6990 H           1 CPB       0.0388
     44 H16        39.9159   39.6210   22.0122 H           1 CPB       0.2468
     45 H17        43.5523   48.4792   25.3253 H           1 CPB       0.0633
     46 H18        44.1902   47.9377   27.5905 H           1 CPB       0.0647
     47 H19        44.7166   45.6482   28.1961 H           1 CPB       0.0629
     48 H20        44.5997   43.8950   26.5479 H           1 CPB       0.0661
     49 H21        41.1780   38.0988   25.7785 H           1 CPB       0.2102
@<TRIPOS>BOND
     1     1     2   1
     2     2     3   1
     3     2     7   1
     4     3     4   1
     5     4     5   1
     6     5     6   1
     7     5     8   1
     8     6     7   1
     9     6    28   1
    10     8     9  ar
    11     8    19  ar
    12     9    10   1
    13     9    15  ar
    14    10    11   1
    15    11    12   2
    16    11    21   1
    17    12    13   1
    18    13    14   2
    19    13    15   1
    20    15    16  ar
    21    16    17   1
    22    16    18  ar
    23    18    19  ar
    24    19    20   1
    25    21    22  ar
    26    21    27  ar
    27    22    23   1
    28    22    24  ar
    29    24    25  ar
    30    25    26  ar
    31    26    27  ar
    32     1    29   1
    33     1    30   1
    34     1    31   1
    35     2    32   1
    36     3    33   1
    37     3    34   1
    38     4    35   1
    39     4    36   1
    40     5    37   1
    41     6    38   1
    42     7    39   1
    43     7    40   1
    44    12    41   1
    45    17    42   1
    46    18    43   1
    47    20    44   1
    48    24    45   1
    49    25    46   1
    50    26    47   1
    51    27    48   1
    52    28    49   1
@<TRIPOS>SUBSTRUCTURE
     1  CPB      1

