@<TRIPOS>MOLECULE
3ebp_ligand_056
    49    52
SMALL
GAST_HUCK
****
This file was generated by PARSER (from files_GN.cpp)

@<TRIPOS>ATOM
      1 C1         37.4020   34.6994   24.5799 C.3         1 CPB      -0.0430
      2 N1         38.0727   35.6850   25.4745 N.4         1 CPB       0.2351
      3 C16        38.2674   35.1474   26.8579 C.3         1 CPB      -0.0305
      4 C15        38.8669   36.2208   27.8028 C.3         1 CPB      -0.0017
      5 C14        40.1818   36.8379   27.2260 C.3         1 CPB       0.0215
      6 C13        39.9822   37.3218   25.7569 C.3         1 CPB       0.1030
      7 C12        39.3439   36.2047   24.8844 C.3         1 CPB      -0.0040
      8 C8         40.8453   37.8815   28.1009 C.ar        1 CPB       0.0228
      9 C9         42.2303   37.7822   28.4313 C.ar        1 CPB       0.1322
     10 O1         42.9881   36.7567   27.8879 O.3         1 CPB      -0.2448
     11 C2         44.2690   36.5703   28.2798 C.2         1 CPB       0.1417
     12 C3         44.8937   37.4515   29.0889 C.2         1 CPB       0.0078
     13 C4         44.2270   38.5375   29.5574 C.2         1 CPB       0.0995
     14 O4         44.8640   39.3306   30.2453 O.2         1 CPB      -0.4249
     15 C10        42.8690   38.7379   29.2742 C.ar        1 CPB       0.0721
     16 C5         42.1130   39.8234   29.7757 C.ar        1 CPB       0.0869
     17 O5         42.6456   40.7767   30.5816 O.3         1 CPB      -0.3368
     18 C6         40.7628   39.9543   29.4346 C.ar        1 CPB      -0.0144
     19 C7         40.1345   39.0094   28.6053 C.ar        1 CPB       0.0802
     20 O7         38.8336   39.2499   28.3161 O.3         1 CPB      -0.3389
     21 C21        44.9219   35.4514   27.7890 C.ar        1 CPB       0.0440
     22 C22        45.2376   34.3341   28.6081 C.ar        1 CPB       0.0577
     23 CL1        44.8346   34.2620   30.2570 Cl          1 CPB      -0.0650
     24 C23        45.8820   33.2140   28.0476 C.ar        1 CPB      -0.0431
     25 C24        46.2346   33.1988   26.6858 C.ar        1 CPB      -0.0577
     26 C25        45.9291   34.3049   25.8717 C.ar        1 CPB      -0.0569
     27 C26        45.2687   35.4187   26.4159 C.ar        1 CPB      -0.0446
     28 O3         39.1730   38.4960   25.6937 O.3         1 CPB      -0.3849
     29 H1         36.4546   34.3681   25.0094 H           1 CPB       0.0778
     30 H2         38.0335   33.8215   24.4134 H           1 CPB       0.0778
     31 H3         37.1786   35.1566   23.6147 H           1 CPB       0.0778
     32 H4         37.4426   36.4900   25.5439 H           1 CPB       0.2031
     33 H5         38.9236   34.2707   26.8397 H           1 CPB       0.0816
     34 H6         37.3046   34.8347   27.2712 H           1 CPB       0.0816
     35 H7         39.0683   35.7691   28.7786 H           1 CPB       0.0335
     36 H8         38.1030   36.9836   27.9388 H           1 CPB       0.0335
     37 H9         40.8534   35.9782   27.1514 H           1 CPB       0.0427
     38 H10        40.9584   37.5755   25.3332 H           1 CPB       0.0665
     39 H11        39.1540   36.6140   23.8874 H           1 CPB       0.0841
     40 H12        40.0567   35.3825   24.7734 H           1 CPB       0.0841
     41 H13        45.8487   37.3093   29.3384 H           1 CPB       0.0418
     42 H14        43.0746   41.4091   29.9656 H           1 CPB       0.2482
     43 H15        40.2286   40.7520   29.7910 H           1 CPB       0.0388
     44 H16        38.3558   39.0920   29.1583 H           1 CPB       0.2468
     45 H17        46.0989   32.3960   28.6238 H           1 CPB       0.0633
     46 H18        46.7100   32.3871   26.2888 H           1 CPB       0.0647
     47 H19        46.1846   34.2915   24.8810 H           1 CPB       0.0629
     48 H20        45.0533   36.2102   25.8023 H           1 CPB       0.0661
     49 H21        39.1261   38.7352   24.7414 H           1 CPB       0.2102
@<TRIPOS>BOND
     1     1     2   1
     2     2     3   1
     3     2     7   1
     4     3     4   1
     5     4     5   1
     6     5     6   1
     7     5     8   1
     8     6     7   1
     9     6    28   1
    10     8     9  ar
    11     8    19  ar
    12     9    10   1
    13     9    15  ar
    14    10    11   1
    15    11    12   2
    16    11    21   1
    17    12    13   1
    18    13    14   2
    19    13    15   1
    20    15    16  ar
    21    16    17   1
    22    16    18  ar
    23    18    19  ar
    24    19    20   1
    25    21    22  ar
    26    21    27  ar
    27    22    23   1
    28    22    24  ar
    29    24    25  ar
    30    25    26  ar
    31    26    27  ar
    32     1    29   1
    33     1    30   1
    34     1    31   1
    35     2    32   1
    36     3    33   1
    37     3    34   1
    38     4    35   1
    39     4    36   1
    40     5    37   1
    41     6    38   1
    42     7    39   1
    43     7    40   1
    44    12    41   1
    45    17    42   1
    46    18    43   1
    47    20    44   1
    48    24    45   1
    49    25    46   1
    50    26    47   1
    51    27    48   1
    52    28    49   1
@<TRIPOS>SUBSTRUCTURE
     1  CPB      1

