@<TRIPOS>MOLECULE
3ebp_ligand_069
    49    52
SMALL
GAST_HUCK
****
This file was generated by PARSER (from files_GN.cpp)

@<TRIPOS>ATOM
      1 C1         37.5102   31.1052   27.2568 C.3         1 CPB      -0.0430
      2 N1         37.9548   32.5285   27.3086 N.4         1 CPB       0.2351
      3 C16        38.4887   32.9117   28.6553 C.3         1 CPB      -0.0305
      4 C15        38.8625   34.4184   28.7213 C.3         1 CPB      -0.0017
      5 C14        39.8638   34.8006   27.5924 C.3         1 CPB       0.0215
      6 C13        39.3132   34.3591   26.1942 C.3         1 CPB       0.1030
      7 C12        38.9043   32.8555   26.1963 C.3         1 CPB      -0.0040
      8 C8         40.3650   36.2246   27.6825 C.ar        1 CPB       0.0228
      9 C9         41.7373   36.5133   27.9493 C.ar        1 CPB       0.1322
     10 O1         42.6120   35.4735   28.2419 O.3         1 CPB      -0.2448
     11 C2         43.9406   35.7137   28.3577 C.2         1 CPB       0.1417
     12 C3         44.4458   36.9620   28.3077 C.2         1 CPB       0.0078
     13 C4         43.6107   38.0262   28.1673 C.2         1 CPB       0.0995
     14 O4         44.1181   39.1394   28.1979 O.2         1 CPB      -0.4249
     15 C10        42.2321   37.8499   27.9677 C.ar        1 CPB       0.0721
     16 C5         41.3248   38.9196   27.7650 C.ar        1 CPB       0.0869
     17 O5         41.7077   40.2216   27.7797 O.3         1 CPB      -0.3368
     18 C6         39.9636   38.6522   27.5625 C.ar        1 CPB      -0.0144
     19 C7         39.4916   37.3307   27.5069 C.ar        1 CPB       0.0802
     20 O7         38.1585   37.1785   27.3188 O.3         1 CPB      -0.3389
     21 C21        44.7485   34.6203   28.6112 C.ar        1 CPB       0.0440
     22 C22        44.9887   34.1534   29.9305 C.ar        1 CPB       0.0577
     23 CL1        44.3684   34.9304   31.3087 Cl          1 CPB      -0.0650
     24 C23        45.7690   32.9951   30.1287 C.ar        1 CPB      -0.0431
     25 C24        46.3030   32.2966   29.0318 C.ar        1 CPB      -0.0577
     26 C25        46.0748   32.7636   27.7272 C.ar        1 CPB      -0.0569
     27 C26        45.3090   33.9234   27.5164 C.ar        1 CPB      -0.0446
     28 O3         38.1982   35.1234   25.7391 O.3         1 CPB      -0.3849
     29 H1         36.8141   30.8853   28.0713 H           1 CPB       0.0778
     30 H2         38.3566   30.4171   27.3357 H           1 CPB       0.0778
     31 H3         36.9858   30.9064   26.3182 H           1 CPB       0.0778
     32 H4         37.1154   33.0916   27.1579 H           1 CPB       0.2031
     33 H5         39.3686   32.3088   28.8984 H           1 CPB       0.0816
     34 H6         37.7326   32.7196   29.4211 H           1 CPB       0.0816
     35 H7         39.3135   34.6251   29.6952 H           1 CPB       0.0335
     36 H8         37.9485   35.0090   28.6444 H           1 CPB       0.0335
     37 H9         40.7157   34.1399   27.7540 H           1 CPB       0.0427
     38 H10        40.0954   34.4889   25.4467 H           1 CPB       0.0665
     39 H11        38.4432   32.6192   25.2340 H           1 CPB       0.0841
     40 H12        39.8053   32.2405   26.2827 H           1 CPB       0.0841
     41 H13        45.4307   37.1073   28.3756 H           1 CPB       0.0418
     42 H14        42.0495   40.4022   26.8794 H           1 CPB       0.2482
     43 H15        39.3131   39.4358   27.4463 H           1 CPB       0.0388
     44 H16        37.9420   37.6838   26.5000 H           1 CPB       0.2468
     45 H17        45.9478   32.6475   31.0757 H           1 CPB       0.0633
     46 H18        46.8590   31.4551   29.1843 H           1 CPB       0.0647
     47 H19        46.4721   32.2627   26.9274 H           1 CPB       0.0629
     48 H20        45.1696   34.2540   26.5568 H           1 CPB       0.0661
     49 H21        37.5072   35.0304   26.4328 H           1 CPB       0.2102
@<TRIPOS>BOND
     1     1     2   1
     2     2     3   1
     3     2     7   1
     4     3     4   1
     5     4     5   1
     6     5     6   1
     7     5     8   1
     8     6     7   1
     9     6    28   1
    10     8     9  ar
    11     8    19  ar
    12     9    10   1
    13     9    15  ar
    14    10    11   1
    15    11    12   2
    16    11    21   1
    17    12    13   1
    18    13    14   2
    19    13    15   1
    20    15    16  ar
    21    16    17   1
    22    16    18  ar
    23    18    19  ar
    24    19    20   1
    25    21    22  ar
    26    21    27  ar
    27    22    23   1
    28    22    24  ar
    29    24    25  ar
    30    25    26  ar
    31    26    27  ar
    32     1    29   1
    33     1    30   1
    34     1    31   1
    35     2    32   1
    36     3    33   1
    37     3    34   1
    38     4    35   1
    39     4    36   1
    40     5    37   1
    41     6    38   1
    42     7    39   1
    43     7    40   1
    44    12    41   1
    45    17    42   1
    46    18    43   1
    47    20    44   1
    48    24    45   1
    49    25    46   1
    50    26    47   1
    51    27    48   1
    52    28    49   1
@<TRIPOS>SUBSTRUCTURE
     1  CPB      1

