@<TRIPOS>MOLECULE
3ebp_ligand_086
    49    52
SMALL
GAST_HUCK
****
This file was generated by PARSER (from files_GN.cpp)

@<TRIPOS>ATOM
      1 C1         37.3265   37.1872   32.9339 C.3         1 CPB      -0.0430
      2 N1         37.9872   37.8049   34.1195 N.4         1 CPB       0.2351
      3 C16        37.9124   36.9306   35.3320 C.3         1 CPB      -0.0305
      4 C15        38.5129   37.6363   36.5696 C.3         1 CPB      -0.0017
      5 C14        39.9872   38.0890   36.3188 C.3         1 CPB       0.0215
      6 C13        40.0360   38.9900   35.0397 C.3         1 CPB       0.1030
      7 C12        39.3786   38.2755   33.8214 C.3         1 CPB      -0.0040
      8 C8         40.7802   38.6772   37.4654 C.ar        1 CPB       0.0228
      9 C9         40.2216   39.1262   38.6985 C.ar        1 CPB       0.1322
     10 O1         38.8540   39.1220   38.8841 O.3         1 CPB      -0.2448
     11 C2         38.3422   39.1414   40.1325 C.2         1 CPB       0.1417
     12 C3         39.0655   39.6520   41.1495 C.2         1 CPB       0.0078
     13 C4         40.3738   39.9767   40.9546 C.2         1 CPB       0.0995
     14 O4         40.9720   40.5030   41.8874 O.2         1 CPB      -0.4249
     15 C10        41.0321   39.6305   39.7576 C.ar        1 CPB       0.0721
     16 C5         42.4332   39.7361   39.5634 C.ar        1 CPB       0.0869
     17 O5         43.2817   40.1990   40.5123 O.3         1 CPB      -0.3368
     18 C6         42.9996   39.3106   38.3515 C.ar        1 CPB      -0.0144
     19 C7         42.1929   38.7928   37.3201 C.ar        1 CPB       0.0802
     20 O7         42.8464   38.3897   36.1995 O.3         1 CPB      -0.3389
     21 C21        37.0348   38.6914   40.2670 C.ar        1 CPB       0.0440
     22 C22        36.6600   37.6295   41.1415 C.ar        1 CPB       0.0577
     23 CL1        37.7648   36.7734   42.1133 Cl          1 CPB      -0.0650
     24 C23        35.3205   37.1799   41.1823 C.ar        1 CPB      -0.0431
     25 C24        34.3468   37.7820   40.3646 C.ar        1 CPB      -0.0577
     26 C25        34.7003   38.8348   39.5064 C.ar        1 CPB      -0.0569
     27 C26        36.0364   39.2671   39.4395 C.ar        1 CPB      -0.0446
     28 O3         39.4278   40.2623   35.2816 O.3         1 CPB      -0.3849
     29 H1         36.2802   36.9681   33.1594 H           1 CPB       0.0778
     30 H2         37.8222   36.2584   32.6389 H           1 CPB       0.0778
     31 H3         37.3433   37.8722   32.0863 H           1 CPB       0.0778
     32 H4         37.4455   38.6433   34.3377 H           1 CPB       0.2031
     33 H5         38.4375   35.9933   35.1629 H           1 CPB       0.0816
     34 H6         36.8678   36.6980   35.5549 H           1 CPB       0.0816
     35 H7         38.4788   36.9618   37.4289 H           1 CPB       0.0335
     36 H8         37.8776   38.4992   36.7722 H           1 CPB       0.0335
     37 H9         40.5006   37.1494   36.0648 H           1 CPB       0.0427
     38 H10        41.0800   39.1932   34.7800 H           1 CPB       0.0665
     39 H11        39.3577   38.9784   32.9873 H           1 CPB       0.0841
     40 H12        40.0074   37.4248   33.5281 H           1 CPB       0.0841
     41 H13        38.6497   39.7780   42.0465 H           1 CPB       0.0418
     42 H14        43.0097   41.1273   40.6621 H           1 CPB       0.2482
     43 H15        44.0144   39.3782   38.2167 H           1 CPB       0.0388
     44 H16        42.7813   37.4108   36.2017 H           1 CPB       0.2468
     45 H17        35.0477   36.3945   41.7805 H           1 CPB       0.0633
     46 H18        33.3837   37.4453   40.3894 H           1 CPB       0.0647
     47 H19        33.9942   39.2778   38.9205 H           1 CPB       0.0629
     48 H20        36.2691   40.0241   38.7893 H           1 CPB       0.0661
     49 H21        38.4786   40.1887   35.0194 H           1 CPB       0.2102
@<TRIPOS>BOND
     1     1     2   1
     2     2     3   1
     3     2     7   1
     4     3     4   1
     5     4     5   1
     6     5     6   1
     7     5     8   1
     8     6     7   1
     9     6    28   1
    10     8     9  ar
    11     8    19  ar
    12     9    10   1
    13     9    15  ar
    14    10    11   1
    15    11    12   2
    16    11    21   1
    17    12    13   1
    18    13    14   2
    19    13    15   1
    20    15    16  ar
    21    16    17   1
    22    16    18  ar
    23    18    19  ar
    24    19    20   1
    25    21    22  ar
    26    21    27  ar
    27    22    23   1
    28    22    24  ar
    29    24    25  ar
    30    25    26  ar
    31    26    27  ar
    32     1    29   1
    33     1    30   1
    34     1    31   1
    35     2    32   1
    36     3    33   1
    37     3    34   1
    38     4    35   1
    39     4    36   1
    40     5    37   1
    41     6    38   1
    42     7    39   1
    43     7    40   1
    44    12    41   1
    45    17    42   1
    46    18    43   1
    47    20    44   1
    48    24    45   1
    49    25    46   1
    50    26    47   1
    51    27    48   1
    52    28    49   1
@<TRIPOS>SUBSTRUCTURE
     1  CPB      1

