@<TRIPOS>MOLECULE
3ebp_ligand_016
    49    52
SMALL
GAST_HUCK
****
This file was generated by PARSER (from files_GN.cpp)

@<TRIPOS>ATOM
      1 C1         41.5194   41.7489   29.7733 C.3         1 CPB      -0.0430
      2 N1         40.8715   40.5781   29.1192 N.4         1 CPB       0.2351
      3 C16        41.3233   39.2748   29.7005 C.3         1 CPB      -0.0305
      4 C15        40.7494   38.0775   28.8999 C.3         1 CPB      -0.0017
      5 C14        39.1915   38.1427   28.8082 C.3         1 CPB       0.0215
      6 C13        38.7124   39.5455   28.2917 C.3         1 CPB       0.1030
      7 C12        39.3805   40.6947   29.1029 C.3         1 CPB      -0.0040
      8 C8         38.6071   36.9279   28.1285 C.ar        1 CPB       0.0228
      9 C9         38.9121   36.6063   26.7741 C.ar        1 CPB       0.1322
     10 O1         39.7139   37.4526   26.0385 O.3         1 CPB      -0.2448
     11 C2         39.8541   37.3011   24.6967 C.2         1 CPB       0.1417
     12 C3         39.4695   36.1406   24.1159 C.2         1 CPB       0.0078
     13 C4         38.8006   35.1900   24.8304 C.2         1 CPB       0.0995
     14 O4         38.4718   34.1727   24.2330 O.2         1 CPB      -0.4249
     15 C10        38.4349   35.4099   26.1671 C.ar        1 CPB       0.0721
     16 C5         37.6225   34.5220   26.9213 C.ar        1 CPB       0.0869
     17 O5         37.1270   33.3619   26.3857 O.3         1 CPB      -0.3368
     18 C6         37.3113   34.8342   28.2560 C.ar        1 CPB      -0.0144
     19 C7         37.7951   36.0127   28.8581 C.ar        1 CPB       0.0802
     20 O7         37.4684   36.2362   30.1630 O.3         1 CPB      -0.3389
     21 C21        40.5031   38.3486   24.0128 C.ar        1 CPB       0.0440
     22 C22        40.1566   38.8091   22.7032 C.ar        1 CPB       0.0577
     23 CL1        38.8841   38.1732   21.7709 Cl          1 CPB      -0.0650
     24 C23        40.8407   39.9027   22.1205 C.ar        1 CPB      -0.0431
     25 C24        41.8624   40.5602   22.8229 C.ar        1 CPB      -0.0577
     26 C25        42.2185   40.1241   24.1072 C.ar        1 CPB      -0.0569
     27 C26        41.5429   39.0412   24.6913 C.ar        1 CPB      -0.0446
     28 O3         38.9778   39.7816   26.9102 O.3         1 CPB      -0.3849
     29 H1         42.6065   41.6605   29.7329 H           1 CPB       0.0778
     30 H2         41.2147   41.8356   30.8228 H           1 CPB       0.0778
     31 H3         41.2471   42.6699   29.2562 H           1 CPB       0.0778
     32 H4         41.1791   40.5864   28.1453 H           1 CPB       0.2031
     33 H5         41.0136   39.1916   30.7475 H           1 CPB       0.0816
     34 H6         42.4171   39.2062   29.6721 H           1 CPB       0.0816
     35 H7         41.0475   37.1462   29.3902 H           1 CPB       0.0335
     36 H8         41.2056   38.0898   27.9121 H           1 CPB       0.0335
     37 H9         38.8671   38.1356   29.8546 H           1 CPB       0.0427
     38 H10        37.6314   39.6284   28.4381 H           1 CPB       0.0665
     39 H11        39.0913   41.6511   28.6497 H           1 CPB       0.0841
     40 H12        38.9919   40.6926   30.1265 H           1 CPB       0.0841
     41 H13        39.6873   35.9697   23.1579 H           1 CPB       0.0418
     42 H14        36.2356   33.2371   26.7783 H           1 CPB       0.2482
     43 H15        36.7274   34.1841   28.7978 H           1 CPB       0.0388
     44 H16        36.8342   35.5318   30.4258 H           1 CPB       0.2468
     45 H17        40.5878   40.2526   21.1884 H           1 CPB       0.0633
     46 H18        42.3432   41.3600   22.3966 H           1 CPB       0.0647
     47 H19        42.9656   40.6057   24.6173 H           1 CPB       0.0629
     48 H20        41.8411   38.7494   25.6238 H           1 CPB       0.0661
     49 H21        38.3224   39.2436   26.4116 H           1 CPB       0.2102
@<TRIPOS>BOND
     1     1     2   1
     2     2     3   1
     3     2     7   1
     4     3     4   1
     5     4     5   1
     6     5     6   1
     7     5     8   1
     8     6     7   1
     9     6    28   1
    10     8     9  ar
    11     8    19  ar
    12     9    10   1
    13     9    15  ar
    14    10    11   1
    15    11    12   2
    16    11    21   1
    17    12    13   1
    18    13    14   2
    19    13    15   1
    20    15    16  ar
    21    16    17   1
    22    16    18  ar
    23    18    19  ar
    24    19    20   1
    25    21    22  ar
    26    21    27  ar
    27    22    23   1
    28    22    24  ar
    29    24    25  ar
    30    25    26  ar
    31    26    27  ar
    32     1    29   1
    33     1    30   1
    34     1    31   1
    35     2    32   1
    36     3    33   1
    37     3    34   1
    38     4    35   1
    39     4    36   1
    40     5    37   1
    41     6    38   1
    42     7    39   1
    43     7    40   1
    44    12    41   1
    45    17    42   1
    46    18    43   1
    47    20    44   1
    48    24    45   1
    49    25    46   1
    50    26    47   1
    51    27    48   1
    52    28    49   1
@<TRIPOS>SUBSTRUCTURE
     1  CPB      1

