@<TRIPOS>MOLECULE
3ebp_ligand_027
    49    52
SMALL
GAST_HUCK
****
This file was generated by PARSER (from files_GN.cpp)

@<TRIPOS>ATOM
      1 C1         38.4631   46.9262   25.9849 C.3         1 CPB      -0.0430
      2 N1         38.3140   45.4947   26.3651 N.4         1 CPB       0.2351
      3 C16        39.1037   44.5746   25.4912 C.3         1 CPB      -0.0305
      4 C15        38.8750   43.0809   25.8586 C.3         1 CPB      -0.0017
      5 C14        39.1833   42.8035   27.3693 C.3         1 CPB       0.0215
      6 C13        38.2948   43.7864   28.2134 C.3         1 CPB       0.1030
      7 C12        38.5704   45.2661   27.8202 C.3         1 CPB      -0.0040
      8 C8         39.2154   41.3276   27.7420 C.ar        1 CPB       0.0228
      9 C9         40.1989   40.4821   27.1443 C.ar        1 CPB       0.1322
     10 O1         41.1322   41.0201   26.2668 O.3         1 CPB      -0.2448
     11 C2         41.8264   40.1813   25.4541 C.2         1 CPB       0.1417
     12 C3         41.9279   38.8696   25.7141 C.2         1 CPB       0.0078
     13 C4         41.2398   38.3308   26.7583 C.2         1 CPB       0.0995
     14 O4         41.4398   37.1523   27.0040 O.2         1 CPB      -0.4249
     15 C10        40.2970   39.0954   27.4608 C.ar        1 CPB       0.0721
     16 C5         39.4333   38.5478   28.4339 C.ar        1 CPB       0.0869
     17 O5         39.4698   37.2414   28.7842 O.3         1 CPB      -0.3368
     18 C6         38.5002   39.3714   29.0726 C.ar        1 CPB      -0.0144
     19 C7         38.3765   40.7305   28.7306 C.ar        1 CPB       0.0802
     20 O7         37.4131   41.3828   29.4269 O.3         1 CPB      -0.3389
     21 C21        42.4491   40.7391   24.3497 C.ar        1 CPB       0.0440
     22 C22        41.9684   40.5395   23.0299 C.ar        1 CPB       0.0577
     23 CL1        40.5530   39.6647   22.6879 Cl          1 CPB      -0.0650
     24 C23        42.6578   41.1191   21.9425 C.ar        1 CPB      -0.0431
     25 C24        43.8226   41.8763   22.1606 C.ar        1 CPB      -0.0577
     26 C25        44.3048   42.0634   23.4651 C.ar        1 CPB      -0.0569
     27 C26        43.6121   41.5115   24.5608 C.ar        1 CPB      -0.0446
     28 O3         36.8935   43.5559   28.0076 O.3         1 CPB      -0.3849
     29 H1         38.2039   47.0705   24.9329 H           1 CPB       0.0778
     30 H2         39.4836   47.2771   26.1458 H           1 CPB       0.0778
     31 H3         37.7830   47.5501   26.5730 H           1 CPB       0.0778
     32 H4         37.3289   45.2671   26.2154 H           1 CPB       0.2031
     33 H5         40.1683   44.8065   25.5670 H           1 CPB       0.0816
     34 H6         38.8034   44.7199   24.4497 H           1 CPB       0.0816
     35 H7         39.5035   42.4758   25.2112 H           1 CPB       0.0335
     36 H8         37.8415   42.8102   25.6400 H           1 CPB       0.0335
     37 H9         40.2097   43.1454   27.5469 H           1 CPB       0.0427
     38 H10        38.5314   43.6701   29.2756 H           1 CPB       0.0665
     39 H11        37.9078   45.9050   28.4180 H           1 CPB       0.0841
     40 H12        39.6007   45.5316   28.0822 H           1 CPB       0.0841
     41 H13        42.4869   38.2847   25.1327 H           1 CPB       0.0418
     42 H14        38.6915   36.8369   28.3437 H           1 CPB       0.2482
     43 H15        37.9018   38.9678   29.8007 H           1 CPB       0.0388
     44 H16        37.8618   41.6964   30.2407 H           1 CPB       0.2468
     45 H17        42.3109   41.0028   20.9886 H           1 CPB       0.0633
     46 H18        44.3129   42.2994   21.3722 H           1 CPB       0.0647
     47 H19        45.1502   42.6176   23.6285 H           1 CPB       0.0629
     48 H20        43.9789   41.6615   25.5063 H           1 CPB       0.0661
     49 H21        36.4351   44.2352   28.5483 H           1 CPB       0.2102
@<TRIPOS>BOND
     1     1     2   1
     2     2     3   1
     3     2     7   1
     4     3     4   1
     5     4     5   1
     6     5     6   1
     7     5     8   1
     8     6     7   1
     9     6    28   1
    10     8     9  ar
    11     8    19  ar
    12     9    10   1
    13     9    15  ar
    14    10    11   1
    15    11    12   2
    16    11    21   1
    17    12    13   1
    18    13    14   2
    19    13    15   1
    20    15    16  ar
    21    16    17   1
    22    16    18  ar
    23    18    19  ar
    24    19    20   1
    25    21    22  ar
    26    21    27  ar
    27    22    23   1
    28    22    24  ar
    29    24    25  ar
    30    25    26  ar
    31    26    27  ar
    32     1    29   1
    33     1    30   1
    34     1    31   1
    35     2    32   1
    36     3    33   1
    37     3    34   1
    38     4    35   1
    39     4    36   1
    40     5    37   1
    41     6    38   1
    42     7    39   1
    43     7    40   1
    44    12    41   1
    45    17    42   1
    46    18    43   1
    47    20    44   1
    48    24    45   1
    49    25    46   1
    50    26    47   1
    51    27    48   1
    52    28    49   1
@<TRIPOS>SUBSTRUCTURE
     1  CPB      1

