@<TRIPOS>MOLECULE
3ebp_ligand_040
    49    52
SMALL
GAST_HUCK
****
This file was generated by PARSER (from files_GN.cpp)

@<TRIPOS>ATOM
      1 C1         35.5165   33.1999   31.4908 C.3         1 CPB      -0.0430
      2 N1         36.3449   33.8618   30.4455 N.4         1 CPB       0.2351
      3 C16        37.1903   34.9798   30.9672 C.3         1 CPB      -0.0305
      4 C15        37.9247   35.7456   29.8280 C.3         1 CPB      -0.0017
      5 C14        38.7089   34.8000   28.8543 C.3         1 CPB       0.0215
      6 C13        37.7206   33.6653   28.3967 C.3         1 CPB       0.1030
      7 C12        37.1357   32.9019   29.6205 C.3         1 CPB      -0.0040
      8 C8         39.5090   35.5684   27.8171 C.ar        1 CPB       0.0228
      9 C9         40.6739   36.2889   28.2310 C.ar        1 CPB       0.1322
     10 O1         41.0476   36.2669   29.5723 O.3         1 CPB      -0.2448
     11 C2         42.0940   37.0125   30.0054 C.2         1 CPB       0.1417
     12 C3         42.8682   37.7065   29.1513 C.2         1 CPB       0.0078
     13 C4         42.6051   37.6897   27.8205 C.2         1 CPB       0.0995
     14 O4         43.3826   38.2974   27.0937 O.2         1 CPB      -0.4249
     15 C10        41.4843   37.0193   27.3101 C.ar        1 CPB       0.0721
     16 C5         41.1173   37.0510   25.9478 C.ar        1 CPB       0.0869
     17 O5         41.8148   37.7676   25.0299 O.3         1 CPB      -0.3368
     18 C6         39.9905   36.3432   25.5145 C.ar        1 CPB      -0.0144
     19 C7         39.2135   35.6025   26.4210 C.ar        1 CPB       0.0802
     20 O7         38.1893   34.9250   25.8451 O.3         1 CPB      -0.3389
     21 C21        42.3240   37.0721   31.3691 C.ar        1 CPB       0.0440
     22 C22        43.4257   36.4203   31.9873 C.ar        1 CPB       0.0577
     23 CL1        44.5098   35.4415   31.1173 Cl          1 CPB      -0.0650
     24 C23        43.6326   36.5518   33.3762 C.ar        1 CPB      -0.0431
     25 C24        42.7592   37.3332   34.1556 C.ar        1 CPB      -0.0577
     26 C25        41.6703   37.9839   33.5489 C.ar        1 CPB      -0.0569
     27 C26        41.4505   37.8494   32.1678 C.ar        1 CPB      -0.0446
     28 O3         36.6097   34.1843   27.6601 O.3         1 CPB      -0.3849
     29 H1         34.9134   33.9391   32.0242 H           1 CPB       0.0778
     30 H2         36.1341   32.6623   32.2128 H           1 CPB       0.0778
     31 H3         34.8243   32.4948   31.0239 H           1 CPB       0.0778
     32 H4         35.6730   34.2888   29.8071 H           1 CPB       0.2031
     33 H5         37.9292   34.5905   31.6753 H           1 CPB       0.0816
     34 H6         36.5622   35.6956   31.5064 H           1 CPB       0.0816
     35 H7         38.5899   36.4698   30.2992 H           1 CPB       0.0335
     36 H8         37.1891   36.3194   29.2570 H           1 CPB       0.0335
     37 H9         39.4560   34.2801   29.4493 H           1 CPB       0.0427
     38 H10        38.2451   32.9545   27.7552 H           1 CPB       0.0665
     39 H11        36.4928   32.0975   29.2568 H           1 CPB       0.0841
     40 H12        37.9337   32.4406   30.2021 H           1 CPB       0.0841
     41 H13        43.6246   38.2644   29.4978 H           1 CPB       0.0418
     42 H14        41.1543   38.3174   24.5621 H           1 CPB       0.2482
     43 H15        39.7435   36.3728   24.5205 H           1 CPB       0.0388
     44 H16        38.5351   34.0185   25.7050 H           1 CPB       0.2468
     45 H17        44.4144   36.0775   33.8321 H           1 CPB       0.0633
     46 H18        42.9147   37.4262   35.1609 H           1 CPB       0.0647
     47 H19        41.0425   38.5587   34.1139 H           1 CPB       0.0629
     48 H20        40.6570   38.3422   31.7453 H           1 CPB       0.0661
     49 H21        36.0902   33.4017   27.3785 H           1 CPB       0.2102
@<TRIPOS>BOND
     1     1     2   1
     2     2     3   1
     3     2     7   1
     4     3     4   1
     5     4     5   1
     6     5     6   1
     7     5     8   1
     8     6     7   1
     9     6    28   1
    10     8     9  ar
    11     8    19  ar
    12     9    10   1
    13     9    15  ar
    14    10    11   1
    15    11    12   2
    16    11    21   1
    17    12    13   1
    18    13    14   2
    19    13    15   1
    20    15    16  ar
    21    16    17   1
    22    16    18  ar
    23    18    19  ar
    24    19    20   1
    25    21    22  ar
    26    21    27  ar
    27    22    23   1
    28    22    24  ar
    29    24    25  ar
    30    25    26  ar
    31    26    27  ar
    32     1    29   1
    33     1    30   1
    34     1    31   1
    35     2    32   1
    36     3    33   1
    37     3    34   1
    38     4    35   1
    39     4    36   1
    40     5    37   1
    41     6    38   1
    42     7    39   1
    43     7    40   1
    44    12    41   1
    45    17    42   1
    46    18    43   1
    47    20    44   1
    48    24    45   1
    49    25    46   1
    50    26    47   1
    51    27    48   1
    52    28    49   1
@<TRIPOS>SUBSTRUCTURE
     1  CPB      1

