@<TRIPOS>MOLECULE
3ebp_ligand_037
    49    52
SMALL
GAST_HUCK
****
This file was generated by PARSER (from files_GN.cpp)

@<TRIPOS>ATOM
      1 C1         39.6321   40.8232   24.7550 C.3         1 CPB      -0.0430
      2 N1         39.4078   41.3194   26.1419 N.4         1 CPB       0.2351
      3 C16        40.6265   41.9699   26.7215 C.3         1 CPB      -0.0305
      4 C15        40.4171   42.3433   28.2072 C.3         1 CPB      -0.0017
      5 C14        39.1392   43.2247   28.3946 C.3         1 CPB       0.0215
      6 C13        37.8878   42.5952   27.7084 C.3         1 CPB       0.1030
      7 C12        38.1958   42.1980   26.2392 C.3         1 CPB      -0.0040
      8 C8         38.8587   43.6904   29.8030 C.ar        1 CPB       0.0228
      9 C9         38.8401   42.8008   30.9154 C.ar        1 CPB       0.1322
     10 O1         38.9971   41.4461   30.7028 O.3         1 CPB      -0.2448
     11 C2         39.1302   40.6019   31.7311 C.2         1 CPB       0.1417
     12 C3         38.9821   41.0042   33.0079 C.2         1 CPB       0.0078
     13 C4         38.7078   42.3105   33.2771 C.2         1 CPB       0.0995
     14 O4         38.5611   42.6287   34.4571 O.2         1 CPB      -0.4249
     15 C10        38.6276   43.2632   32.2465 C.ar        1 CPB       0.0721
     16 C5         38.3565   44.6377   32.4585 C.ar        1 CPB       0.0869
     17 O5         38.1124   45.1540   33.6891 O.3         1 CPB      -0.3368
     18 C6         38.3033   45.5219   31.3638 C.ar        1 CPB      -0.0144
     19 C7         38.5519   45.0578   30.0589 C.ar        1 CPB       0.0802
     20 O7         38.4187   45.9604   29.0552 O.3         1 CPB      -0.3389
     21 C21        39.3475   39.2759   31.4102 C.ar        1 CPB       0.0440
     22 C22        40.6458   38.7044   31.3721 C.ar        1 CPB       0.0577
     23 CL1        42.0502   39.5935   31.7323 Cl          1 CPB      -0.0650
     24 C23        40.8097   37.3541   31.0007 C.ar        1 CPB      -0.0431
     25 C24        39.6928   36.5747   30.6470 C.ar        1 CPB      -0.0577
     26 C25        38.4052   37.1360   30.6644 C.ar        1 CPB      -0.0569
     27 C26        38.2357   38.4823   31.0419 C.ar        1 CPB      -0.0446
     28 O3         37.3714   41.4617   28.4108 O.3         1 CPB      -0.3849
     29 H1         40.4570   40.1052   24.7365 H           1 CPB       0.0778
     30 H2         39.8643   41.6439   24.0689 H           1 CPB       0.0778
     31 H3         38.7433   40.3037   24.3895 H           1 CPB       0.0778
     32 H4         39.2136   40.4909   26.7081 H           1 CPB       0.2031
     33 H5         40.8855   42.8741   26.1564 H           1 CPB       0.0816
     34 H6         41.4759   41.2836   26.6643 H           1 CPB       0.0816
     35 H7         41.2891   42.8891   28.5745 H           1 CPB       0.0335
     36 H8         40.3655   41.3988   28.7444 H           1 CPB       0.0335
     37 H9         39.3635   44.1151   27.7999 H           1 CPB       0.0427
     38 H10        37.0827   43.3355   27.6922 H           1 CPB       0.0665
     39 H11        37.3255   41.6774   25.8291 H           1 CPB       0.0841
     40 H12        38.3432   43.1063   25.6436 H           1 CPB       0.0841
     41 H13        39.0476   40.3490   33.7583 H           1 CPB       0.0418
     42 H14        39.0021   45.2931   34.0704 H           1 CPB       0.2482
     43 H15        38.0820   46.5060   31.5239 H           1 CPB       0.0388
     44 H16        37.4577   45.9703   28.8821 H           1 CPB       0.2468
     45 H17        41.7392   36.9330   30.9727 H           1 CPB       0.0633
     46 H18        39.8204   35.5990   30.3635 H           1 CPB       0.0647
     47 H19        37.5966   36.5703   30.3969 H           1 CPB       0.0629
     48 H20        37.2888   38.8757   31.0448 H           1 CPB       0.0661
     49 H21        38.1064   40.8113   28.4439 H           1 CPB       0.2102
@<TRIPOS>BOND
     1     1     2   1
     2     2     3   1
     3     2     7   1
     4     3     4   1
     5     4     5   1
     6     5     6   1
     7     5     8   1
     8     6     7   1
     9     6    28   1
    10     8     9  ar
    11     8    19  ar
    12     9    10   1
    13     9    15  ar
    14    10    11   1
    15    11    12   2
    16    11    21   1
    17    12    13   1
    18    13    14   2
    19    13    15   1
    20    15    16  ar
    21    16    17   1
    22    16    18  ar
    23    18    19  ar
    24    19    20   1
    25    21    22  ar
    26    21    27  ar
    27    22    23   1
    28    22    24  ar
    29    24    25  ar
    30    25    26  ar
    31    26    27  ar
    32     1    29   1
    33     1    30   1
    34     1    31   1
    35     2    32   1
    36     3    33   1
    37     3    34   1
    38     4    35   1
    39     4    36   1
    40     5    37   1
    41     6    38   1
    42     7    39   1
    43     7    40   1
    44    12    41   1
    45    17    42   1
    46    18    43   1
    47    20    44   1
    48    24    45   1
    49    25    46   1
    50    26    47   1
    51    27    48   1
    52    28    49   1
@<TRIPOS>SUBSTRUCTURE
     1  CPB      1

