@<TRIPOS>MOLECULE
3ebp_ligand_050
    49    52
SMALL
GAST_HUCK
****
This file was generated by PARSER (from files_GN.cpp)

@<TRIPOS>ATOM
      1 C1         37.7692   32.0023   25.2191 C.3         1 CPB      -0.0430
      2 N1         37.4893   32.5574   26.5721 N.4         1 CPB       0.2351
      3 C16        38.1318   31.7657   27.6680 C.3         1 CPB      -0.0305
      4 C15        37.6844   32.2752   29.0672 C.3         1 CPB      -0.0017
      5 C14        37.9187   33.8160   29.2462 C.3         1 CPB       0.0215
      6 C13        37.2890   34.5749   28.0245 C.3         1 CPB       0.1030
      7 C12        37.7993   34.0082   26.6741 C.3         1 CPB      -0.0040
      8 C8         37.5604   34.4717   30.5650 C.ar        1 CPB       0.0228
      9 C9         38.0967   35.7641   30.8348 C.ar        1 CPB       0.1322
     10 O1         39.0010   36.3183   29.9443 O.3         1 CPB      -0.2448
     11 C2         39.3666   37.6095   30.0757 C.2         1 CPB       0.1417
     12 C3         39.0204   38.3484   31.1481 C.2         1 CPB       0.0078
     13 C4         38.2932   37.7886   32.1495 C.2         1 CPB       0.0995
     14 O4         38.0928   38.4683   33.1512 O.2         1 CPB      -0.4249
     15 C10        37.7571   36.4941   32.0110 C.ar        1 CPB       0.0721
     16 C5         36.8947   35.8906   32.9616 C.ar        1 CPB       0.0869
     17 O5         36.5282   36.5100   34.1135 O.3         1 CPB      -0.3368
     18 C6         36.3856   34.6075   32.7238 C.ar        1 CPB      -0.0144
     19 C7         36.6920   33.9129   31.5450 C.ar        1 CPB       0.0802
     20 O7         36.1379   32.6812   31.4661 O.3         1 CPB      -0.3389
     21 C21        40.1791   38.1242   29.0870 C.ar        1 CPB       0.0440
     22 C22        41.5927   38.0524   29.1736 C.ar        1 CPB       0.0577
     23 CL1        42.3922   37.2925   30.4690 Cl          1 CPB      -0.0650
     24 C23        42.3891   38.6481   28.1677 C.ar        1 CPB      -0.0431
     25 C24        41.7901   39.2969   27.0778 C.ar        1 CPB      -0.0577
     26 C25        40.3911   39.3406   26.9730 C.ar        1 CPB      -0.0569
     27 C26        39.5904   38.7586   27.9702 C.ar        1 CPB      -0.0446
     28 O3         35.8572   34.5429   28.0651 O.3         1 CPB      -0.3849
     29 H1         37.4176   30.9687   25.1546 H           1 CPB       0.0778
     30 H2         38.8395   32.0225   24.9937 H           1 CPB       0.0778
     31 H3         37.2384   32.5765   24.4600 H           1 CPB       0.0778
     32 H4         36.4777   32.4739   26.7006 H           1 CPB       0.2031
     33 H5         39.2179   31.8325   27.6071 H           1 CPB       0.0816
     34 H6         37.8671   30.7057   27.5859 H           1 CPB       0.0816
     35 H7         38.2361   31.7316   29.8457 H           1 CPB       0.0335
     36 H8         36.6293   31.9984   29.1714 H           1 CPB       0.0335
     37 H9         39.0075   33.9022   29.1476 H           1 CPB       0.0427
     38 H10        37.5823   35.6195   28.0588 H           1 CPB       0.0665
     39 H11        37.3032   34.5603   25.8786 H           1 CPB       0.0841
     40 H12        38.8702   34.1863   26.5766 H           1 CPB       0.0841
     41 H13        39.3069   39.3071   31.2152 H           1 CPB       0.0418
     42 H14        37.1965   36.2316   34.7750 H           1 CPB       0.2482
     43 H15        35.7844   34.1756   33.4278 H           1 CPB       0.0388
     44 H16        35.3775   32.7769   30.8444 H           1 CPB       0.2468
     45 H17        43.4120   38.6148   28.2338 H           1 CPB       0.0633
     46 H18        42.3677   39.7325   26.3655 H           1 CPB       0.0647
     47 H19        39.9519   39.7979   26.1666 H           1 CPB       0.0629
     48 H20        38.5668   38.8034   27.8740 H           1 CPB       0.0661
     49 H21        35.6136   33.7164   28.5449 H           1 CPB       0.2102
@<TRIPOS>BOND
     1     1     2   1
     2     2     3   1
     3     2     7   1
     4     3     4   1
     5     4     5   1
     6     5     6   1
     7     5     8   1
     8     6     7   1
     9     6    28   1
    10     8     9  ar
    11     8    19  ar
    12     9    10   1
    13     9    15  ar
    14    10    11   1
    15    11    12   2
    16    11    21   1
    17    12    13   1
    18    13    14   2
    19    13    15   1
    20    15    16  ar
    21    16    17   1
    22    16    18  ar
    23    18    19  ar
    24    19    20   1
    25    21    22  ar
    26    21    27  ar
    27    22    23   1
    28    22    24  ar
    29    24    25  ar
    30    25    26  ar
    31    26    27  ar
    32     1    29   1
    33     1    30   1
    34     1    31   1
    35     2    32   1
    36     3    33   1
    37     3    34   1
    38     4    35   1
    39     4    36   1
    40     5    37   1
    41     6    38   1
    42     7    39   1
    43     7    40   1
    44    12    41   1
    45    17    42   1
    46    18    43   1
    47    20    44   1
    48    24    45   1
    49    25    46   1
    50    26    47   1
    51    27    48   1
    52    28    49   1
@<TRIPOS>SUBSTRUCTURE
     1  CPB      1

