@<TRIPOS>MOLECULE
3ebp_ligand_020
    49    52
SMALL
GAST_HUCK
****
This file was generated by PARSER (from files_GN.cpp)

@<TRIPOS>ATOM
      1 C1         41.6088   39.6424   21.1984 C.3         1 CPB      -0.0430
      2 N1         41.0707   40.4561   22.3179 N.4         1 CPB       0.2351
      3 C16        39.5777   40.5433   22.2722 C.3         1 CPB      -0.0305
      4 C15        39.0534   41.4949   23.3857 C.3         1 CPB      -0.0017
      5 C14        39.5187   41.0010   24.7947 C.3         1 CPB       0.0215
      6 C13        41.0726   40.8476   24.8252 C.3         1 CPB       0.1030
      7 C12        41.5830   39.9879   23.6444 C.3         1 CPB      -0.0040
      8 C8         39.0006   41.7270   26.0088 C.ar        1 CPB       0.0228
      9 C9         38.8130   41.0143   27.2253 C.ar        1 CPB       0.1322
     10 O1         39.1431   39.6683   27.2692 O.3         1 CPB      -0.2448
     11 C2         39.0507   38.9654   28.4284 C.2         1 CPB       0.1417
     12 C3         38.5891   39.5527   29.5555 C.2         1 CPB       0.0078
     13 C4         38.2091   40.8573   29.5543 C.2         1 CPB       0.0995
     14 O4         37.7031   41.2896   30.5794 O.2         1 CPB      -0.4249
     15 C10        38.3313   41.6529   28.4029 C.ar        1 CPB       0.0721
     16 C5         38.0343   43.0321   28.3606 C.ar        1 CPB       0.0869
     17 O5         37.5838   43.6948   29.4510 O.3         1 CPB      -0.3368
     18 C6         38.2556   43.7594   27.1823 C.ar        1 CPB      -0.0144
     19 C7         38.7447   43.1301   26.0280 C.ar        1 CPB       0.0802
     20 O7         38.9912   43.9721   24.9967 O.3         1 CPB      -0.3389
     21 C21        39.2899   37.5906   28.3720 C.ar        1 CPB       0.0440
     22 C22        40.1389   36.8983   29.2810 C.ar        1 CPB       0.0577
     23 CL1        41.1216   37.6920   30.4295 Cl          1 CPB      -0.0650
     24 C23        40.2362   35.4952   29.2232 C.ar        1 CPB      -0.0431
     25 C24        39.4890   34.7643   28.2859 C.ar        1 CPB      -0.0577
     26 C25        38.6830   35.4366   27.3638 C.ar        1 CPB      -0.0569
     27 C26        38.6004   36.8385   27.3929 C.ar        1 CPB      -0.0446
     28 O3         41.7249   42.1185   24.8238 O.3         1 CPB      -0.3849
     29 H1         41.3638   40.0981   20.2429 H           1 CPB       0.0778
     30 H2         41.1872   38.6363   21.2187 H           1 CPB       0.0778
     31 H3         42.6972   39.5727   21.2534 H           1 CPB       0.0778
     32 H4         41.4112   41.4104   22.1707 H           1 CPB       0.2031
     33 H5         39.1286   39.5534   22.3918 H           1 CPB       0.0816
     34 H6         39.2550   40.9463   21.3084 H           1 CPB       0.0816
     35 H7         37.9616   41.5492   23.3456 H           1 CPB       0.0335
     36 H8         39.4499   42.4802   23.1570 H           1 CPB       0.0335
     37 H9         39.1011   39.9886   24.8536 H           1 CPB       0.0427
     38 H10        41.3555   40.3507   25.7561 H           1 CPB       0.0665
     39 H11        42.6768   40.0286   23.6485 H           1 CPB       0.0841
     40 H12        41.2901   38.9434   23.8097 H           1 CPB       0.0841
     41 H13        38.4781   39.0143   30.3909 H           1 CPB       0.0418
     42 H14        36.9799   44.3915   29.1245 H           1 CPB       0.2482
     43 H15        38.0829   44.7738   27.1868 H           1 CPB       0.0388
     44 H16        39.9553   44.1029   25.0173 H           1 CPB       0.2468
     45 H17        40.8468   34.9939   29.8702 H           1 CPB       0.0633
     46 H18        39.5457   33.7452   28.2762 H           1 CPB       0.0647
     47 H19        38.1363   34.9087   26.6800 H           1 CPB       0.0629
     48 H20        37.9950   37.3066   26.7098 H           1 CPB       0.0661
     49 H21        41.6125   42.4699   23.9149 H           1 CPB       0.2102
@<TRIPOS>BOND
     1     1     2   1
     2     2     3   1
     3     2     7   1
     4     3     4   1
     5     4     5   1
     6     5     6   1
     7     5     8   1
     8     6     7   1
     9     6    28   1
    10     8     9  ar
    11     8    19  ar
    12     9    10   1
    13     9    15  ar
    14    10    11   1
    15    11    12   2
    16    11    21   1
    17    12    13   1
    18    13    14   2
    19    13    15   1
    20    15    16  ar
    21    16    17   1
    22    16    18  ar
    23    18    19  ar
    24    19    20   1
    25    21    22  ar
    26    21    27  ar
    27    22    23   1
    28    22    24  ar
    29    24    25  ar
    30    25    26  ar
    31    26    27  ar
    32     1    29   1
    33     1    30   1
    34     1    31   1
    35     2    32   1
    36     3    33   1
    37     3    34   1
    38     4    35   1
    39     4    36   1
    40     5    37   1
    41     6    38   1
    42     7    39   1
    43     7    40   1
    44    12    41   1
    45    17    42   1
    46    18    43   1
    47    20    44   1
    48    24    45   1
    49    25    46   1
    50    26    47   1
    51    27    48   1
    52    28    49   1
@<TRIPOS>SUBSTRUCTURE
     1  CPB      1

