@<TRIPOS>MOLECULE
3ebp_ligand_014
    49    52
SMALL
GAST_HUCK
****
This file was generated by PARSER (from files_GN.cpp)

@<TRIPOS>ATOM
      1 C1         37.2313   30.6674   26.9184 C.3         1 CPB      -0.0430
      2 N1         37.3949   32.1409   26.7903 N.4         1 CPB       0.2351
      3 C16        38.1039   32.7029   27.9731 C.3         1 CPB      -0.0305
      4 C15        38.2179   34.2416   27.8754 C.3         1 CPB      -0.0017
      5 C14        38.8898   34.8037   26.5650 C.3         1 CPB       0.0215
      6 C13        38.1834   34.0736   25.3505 C.3         1 CPB       0.1030
      7 C12        38.0664   32.5283   25.5143 C.3         1 CPB      -0.0040
      8 C8         39.0416   36.3144   26.4320 C.ar        1 CPB       0.0228
      9 C9         38.8019   37.2734   27.4699 C.ar        1 CPB       0.1322
     10 O1         38.3985   36.8814   28.7311 O.3         1 CPB      -0.2448
     11 C2         38.4345   37.7138   29.8020 C.2         1 CPB       0.1417
     12 C3         38.5033   39.0447   29.5956 C.2         1 CPB       0.0078
     13 C4         38.7307   39.5392   28.3471 C.2         1 CPB       0.0995
     14 O4         38.7783   40.7693   28.2301 O.2         1 CPB      -0.4249
     15 C10        38.9606   38.6737   27.2540 C.ar        1 CPB       0.0721
     16 C5         39.3868   39.1608   25.9877 C.ar        1 CPB       0.0869
     17 O5         39.5257   40.4846   25.7051 O.3         1 CPB      -0.3368
     18 C6         39.6452   38.2218   24.9712 C.ar        1 CPB      -0.0144
     19 C7         39.4944   36.8425   25.1876 C.ar        1 CPB       0.0802
     20 O7         39.9101   36.0730   24.1442 O.3         1 CPB      -0.3389
     21 C21        38.2257   37.1683   31.0827 C.ar        1 CPB       0.0440
     22 C22        38.9188   37.5760   32.2628 C.ar        1 CPB       0.0577
     23 CL1        40.2259   38.6753   32.2559 Cl          1 CPB      -0.0650
     24 C23        38.5901   37.0244   33.5152 C.ar        1 CPB      -0.0431
     25 C24        37.5895   36.0448   33.6219 C.ar        1 CPB      -0.0577
     26 C25        36.9275   35.5994   32.4749 C.ar        1 CPB      -0.0569
     27 C26        37.2571   36.1421   31.2191 C.ar        1 CPB      -0.0446
     28 O3         36.9098   34.6471   25.0675 O.3         1 CPB      -0.3849
     29 H1         36.6407   30.4269   27.8130 H           1 CPB       0.0778
     30 H2         38.2038   30.1524   27.0026 H           1 CPB       0.0778
     31 H3         36.6952   30.2538   26.0571 H           1 CPB       0.0778
     32 H4         36.4502   32.5288   26.7669 H           1 CPB       0.2031
     33 H5         39.1052   32.2622   28.0776 H           1 CPB       0.0816
     34 H6         37.5377   32.4639   28.8799 H           1 CPB       0.0816
     35 H7         38.7930   34.5652   28.7541 H           1 CPB       0.0335
     36 H8         37.1991   34.6415   27.9350 H           1 CPB       0.0335
     37 H9         39.9226   34.4144   26.5945 H           1 CPB       0.0427
     38 H10        38.7767   34.1784   24.4493 H           1 CPB       0.0665
     39 H11        37.4968   32.1420   24.6658 H           1 CPB       0.0841
     40 H12        39.0721   32.0917   25.4675 H           1 CPB       0.0841
     41 H13        38.3625   39.6870   30.3504 H           1 CPB       0.0418
     42 H14        40.0020   40.5467   24.8478 H           1 CPB       0.2482
     43 H15        39.9521   38.5441   24.0367 H           1 CPB       0.0388
     44 H16        39.2383   36.2156   23.4343 H           1 CPB       0.2468
     45 H17        39.0829   37.3192   34.3669 H           1 CPB       0.0633
     46 H18        37.3496   35.6386   34.5412 H           1 CPB       0.0647
     47 H19        36.1990   34.8763   32.5447 H           1 CPB       0.0629
     48 H20        36.7418   35.7986   30.4070 H           1 CPB       0.0661
     49 H21        36.8706   34.6651   24.0876 H           1 CPB       0.2102
@<TRIPOS>BOND
     1     1     2   1
     2     2     3   1
     3     2     7   1
     4     3     4   1
     5     4     5   1
     6     5     6   1
     7     5     8   1
     8     6     7   1
     9     6    28   1
    10     8     9  ar
    11     8    19  ar
    12     9    10   1
    13     9    15  ar
    14    10    11   1
    15    11    12   2
    16    11    21   1
    17    12    13   1
    18    13    14   2
    19    13    15   1
    20    15    16  ar
    21    16    17   1
    22    16    18  ar
    23    18    19  ar
    24    19    20   1
    25    21    22  ar
    26    21    27  ar
    27    22    23   1
    28    22    24  ar
    29    24    25  ar
    30    25    26  ar
    31    26    27  ar
    32     1    29   1
    33     1    30   1
    34     1    31   1
    35     2    32   1
    36     3    33   1
    37     3    34   1
    38     4    35   1
    39     4    36   1
    40     5    37   1
    41     6    38   1
    42     7    39   1
    43     7    40   1
    44    12    41   1
    45    17    42   1
    46    18    43   1
    47    20    44   1
    48    24    45   1
    49    25    46   1
    50    26    47   1
    51    27    48   1
    52    28    49   1
@<TRIPOS>SUBSTRUCTURE
     1  CPB      1

