@<TRIPOS>MOLECULE
3ebp_ligand_047
    49    52
SMALL
GAST_HUCK
****
This file was generated by PARSER (from files_GN.cpp)

@<TRIPOS>ATOM
      1 C1         39.6906   40.9216   35.5728 C.3         1 CPB      -0.0430
      2 N1         39.3807   41.0267   34.1248 N.4         1 CPB       0.2351
      3 C16        40.0479   42.2006   33.4766 C.3         1 CPB      -0.0305
      4 C15        39.5977   42.3512   32.0021 C.3         1 CPB      -0.0017
      5 C14        39.8578   41.0442   31.1882 C.3         1 CPB       0.0215
      6 C13        39.1663   39.8427   31.9054 C.3         1 CPB       0.1030
      7 C12        39.6267   39.7470   33.3849 C.3         1 CPB      -0.0040
      8 C8         39.5633   41.0399   29.7089 C.ar        1 CPB       0.0228
      9 C9         40.3376   40.2112   28.8377 C.ar        1 CPB       0.1322
     10 O1         41.4027   39.4910   29.3618 O.3         1 CPB      -0.2448
     11 C2         42.0574   38.5851   28.5933 C.2         1 CPB       0.1417
     12 C3         41.7875   38.4427   27.2858 C.2         1 CPB       0.0078
     13 C4         40.8354   39.2150   26.6936 C.2         1 CPB       0.0995
     14 O4         40.6935   39.0990   25.4843 O.2         1 CPB      -0.4249
     15 C10        40.0481   40.0968   27.4531 C.ar        1 CPB       0.0721
     16 C5         38.9917   40.8669   26.9104 C.ar        1 CPB       0.0869
     17 O5         38.6571   40.8272   25.5954 O.3         1 CPB      -0.3368
     18 C6         38.2230   41.6862   27.7444 C.ar        1 CPB      -0.0144
     19 C7         38.4806   41.7555   29.1229 C.ar        1 CPB       0.0802
     20 O7         37.6065   42.5136   29.8222 O.3         1 CPB      -0.3389
     21 C21        43.0692   37.8633   29.2136 C.ar        1 CPB       0.0440
     22 C22        42.9853   36.4608   29.4366 C.ar        1 CPB       0.0577
     23 CL1        41.6117   35.5484   29.0314 Cl          1 CPB      -0.0650
     24 C23        44.0505   35.7875   30.0685 C.ar        1 CPB      -0.0431
     25 C24        45.2006   36.4848   30.4726 C.ar        1 CPB      -0.0577
     26 C25        45.2881   37.8737   30.2571 C.ar        1 CPB      -0.0569
     27 C26        44.2299   38.5575   29.6418 C.ar        1 CPB      -0.0446
     28 O3         37.7444   39.9862   31.8432 O.3         1 CPB      -0.3849
     29 H1         39.4348   41.8525   36.0855 H           1 CPB       0.0778
     30 H2         40.7508   40.7140   35.7368 H           1 CPB       0.0778
     31 H3         39.1018   40.1273   36.0292 H           1 CPB       0.0778
     32 H4         38.3748   41.1919   34.0644 H           1 CPB       0.2031
     33 H5         41.1391   42.1012   33.5264 H           1 CPB       0.0816
     34 H6         39.7680   43.1186   34.0043 H           1 CPB       0.0816
     35 H7         40.1315   43.1842   31.5367 H           1 CPB       0.0335
     36 H8         38.5336   42.5906   32.0273 H           1 CPB       0.0335
     37 H9         40.9394   40.8900   31.2890 H           1 CPB       0.0427
     38 H10        39.4313   38.9058   31.4026 H           1 CPB       0.0665
     39 H11        39.0761   38.9312   33.8633 H           1 CPB       0.0841
     40 H12        40.6903   39.4915   33.4203 H           1 CPB       0.0841
     41 H13        42.3091   37.7932   26.7352 H           1 CPB       0.0418
     42 H14        38.3608   39.9003   25.4390 H           1 CPB       0.2482
     43 H15        37.4469   42.2225   27.3469 H           1 CPB       0.0388
     44 H16        38.1024   43.3520   29.9994 H           1 CPB       0.2468
     45 H17        43.9883   34.7797   30.2504 H           1 CPB       0.0633
     46 H18        45.9688   35.9917   30.9319 H           1 CPB       0.0647
     47 H19        46.1219   38.3833   30.5548 H           1 CPB       0.0629
     48 H20        44.3244   39.5670   29.4865 H           1 CPB       0.0661
     49 H21        37.3897   39.1678   32.2603 H           1 CPB       0.2102
@<TRIPOS>BOND
     1     1     2   1
     2     2     3   1
     3     2     7   1
     4     3     4   1
     5     4     5   1
     6     5     6   1
     7     5     8   1
     8     6     7   1
     9     6    28   1
    10     8     9  ar
    11     8    19  ar
    12     9    10   1
    13     9    15  ar
    14    10    11   1
    15    11    12   2
    16    11    21   1
    17    12    13   1
    18    13    14   2
    19    13    15   1
    20    15    16  ar
    21    16    17   1
    22    16    18  ar
    23    18    19  ar
    24    19    20   1
    25    21    22  ar
    26    21    27  ar
    27    22    23   1
    28    22    24  ar
    29    24    25  ar
    30    25    26  ar
    31    26    27  ar
    32     1    29   1
    33     1    30   1
    34     1    31   1
    35     2    32   1
    36     3    33   1
    37     3    34   1
    38     4    35   1
    39     4    36   1
    40     5    37   1
    41     6    38   1
    42     7    39   1
    43     7    40   1
    44    12    41   1
    45    17    42   1
    46    18    43   1
    47    20    44   1
    48    24    45   1
    49    25    46   1
    50    26    47   1
    51    27    48   1
    52    28    49   1
@<TRIPOS>SUBSTRUCTURE
     1  CPB      1

