@<TRIPOS>MOLECULE
3ebp_ligand_036
    49    52
SMALL
GAST_HUCK
****
This file was generated by PARSER (from files_GN.cpp)

@<TRIPOS>ATOM
      1 C1         38.8653   42.1115   23.8662 C.3         1 CPB      -0.0430
      2 N1         40.1581   41.3924   23.6988 N.4         1 CPB       0.2351
      3 C16        40.8244   41.0700   24.9961 C.3         1 CPB      -0.0305
      4 C15        42.2407   40.4597   24.7833 C.3         1 CPB      -0.0017
      5 C14        42.2224   39.2253   23.8165 C.3         1 CPB       0.0215
      6 C13        41.4875   39.6539   22.5030 C.3         1 CPB       0.1030
      7 C12        40.0601   40.1814   22.8219 C.3         1 CPB      -0.0040
      8 C8         43.5626   38.5129   23.7681 C.ar        1 CPB       0.0228
      9 C9         43.8946   37.6153   24.8315 C.ar        1 CPB       0.1322
     10 O1         42.9689   37.3885   25.8401 O.3         1 CPB      -0.2448
     11 C2         43.3442   36.7030   26.9502 C.2         1 CPB       0.1417
     12 C3         44.5056   36.0233   27.0045 C.2         1 CPB       0.0078
     13 C4         45.3614   36.0538   25.9536 C.2         1 CPB       0.0995
     14 O4         46.3544   35.3390   26.0119 O.2         1 CPB      -0.4249
     15 C10        45.1235   36.8960   24.8504 C.ar        1 CPB       0.0721
     16 C5         46.0331   37.0466   23.7797 C.ar        1 CPB       0.0869
     17 O5         47.2095   36.3761   23.7196 O.3         1 CPB      -0.3368
     18 C6         45.7211   37.9018   22.7163 C.ar        1 CPB      -0.0144
     19 C7         44.5090   38.6238   22.6992 C.ar        1 CPB       0.0802
     20 O7         44.3389   39.3453   21.5765 O.3         1 CPB      -0.3389
     21 C21        42.4745   36.6921   28.0244 C.ar        1 CPB       0.0440
     22 C22        42.6222   37.5800   29.1224 C.ar        1 CPB       0.0577
     23 CL1        43.8234   38.7800   29.1753 Cl          1 CPB      -0.0650
     24 C23        41.7428   37.4860   30.2203 C.ar        1 CPB      -0.0431
     25 C24        40.7235   36.5163   30.2349 C.ar        1 CPB      -0.0577
     26 C25        40.5801   35.6301   29.1540 C.ar        1 CPB      -0.0569
     27 C26        41.4459   35.7230   28.0482 C.ar        1 CPB      -0.0446
     28 O3         42.1466   40.7231   21.8298 O.3         1 CPB      -0.3849
     29 H1         39.0087   43.0206   24.4537 H           1 CPB       0.0778
     30 H2         38.1205   41.4877   24.3642 H           1 CPB       0.0778
     31 H3         38.4754   42.4170   22.8939 H           1 CPB       0.0778
     32 H4         40.7756   42.0453   23.2122 H           1 CPB       0.2031
     33 H5         40.2080   40.3701   25.5699 H           1 CPB       0.0816
     34 H6         40.9366   41.9780   25.5934 H           1 CPB       0.0816
     35 H7         42.6327   40.1890   25.7667 H           1 CPB       0.0335
     36 H8         42.9029   41.2203   24.3698 H           1 CPB       0.0335
     37 H9         41.5410   38.4828   24.2635 H           1 CPB       0.0427
     38 H10        41.4106   38.7971   21.8312 H           1 CPB       0.0665
     39 H11        39.5596   40.4294   21.8794 H           1 CPB       0.0841
     40 H12        39.4711   39.3960   23.3116 H           1 CPB       0.0841
     41 H13        44.7423   35.4984   27.8148 H           1 CPB       0.0418
     42 H14        47.8588   36.9719   24.1533 H           1 CPB       0.2482
     43 H15        46.3725   37.9901   21.9390 H           1 CPB       0.0388
     44 H16        44.5704   40.2704   21.8415 H           1 CPB       0.2468
     45 H17        41.8416   38.1155   31.0205 H           1 CPB       0.0633
     46 H18        40.0890   36.4530   31.0341 H           1 CPB       0.0647
     47 H19        39.8529   34.9105   29.1757 H           1 CPB       0.0629
     48 H20        41.3319   35.0574   27.2771 H           1 CPB       0.0661
     49 H21        41.4710   41.0913   21.2165 H           1 CPB       0.2102
@<TRIPOS>BOND
     1     1     2   1
     2     2     3   1
     3     2     7   1
     4     3     4   1
     5     4     5   1
     6     5     6   1
     7     5     8   1
     8     6     7   1
     9     6    28   1
    10     8     9  ar
    11     8    19  ar
    12     9    10   1
    13     9    15  ar
    14    10    11   1
    15    11    12   2
    16    11    21   1
    17    12    13   1
    18    13    14   2
    19    13    15   1
    20    15    16  ar
    21    16    17   1
    22    16    18  ar
    23    18    19  ar
    24    19    20   1
    25    21    22  ar
    26    21    27  ar
    27    22    23   1
    28    22    24  ar
    29    24    25  ar
    30    25    26  ar
    31    26    27  ar
    32     1    29   1
    33     1    30   1
    34     1    31   1
    35     2    32   1
    36     3    33   1
    37     3    34   1
    38     4    35   1
    39     4    36   1
    40     5    37   1
    41     6    38   1
    42     7    39   1
    43     7    40   1
    44    12    41   1
    45    17    42   1
    46    18    43   1
    47    20    44   1
    48    24    45   1
    49    25    46   1
    50    26    47   1
    51    27    48   1
    52    28    49   1
@<TRIPOS>SUBSTRUCTURE
     1  CPB      1

