@<TRIPOS>MOLECULE
3ehy_ligand_028
    29    29
SMALL
GAST_HUCK
****
This file was generated by PARSER (from files_GN.cpp)

@<TRIPOS>ATOM
      1 O4        -13.9033  -12.0928   -7.3535 O.2         1 TBL      -0.1516
      2 S1        -12.5115  -12.6074   -6.7784 S.o2        1 TBL       0.0650
      3 O3        -12.1351  -13.8938   -7.6317 O.2         1 TBL      -0.1516
      4 N1        -12.7818  -13.0436   -5.1691 N.am        1 TBL      -0.2329
      5 C2        -11.8350  -13.7659   -4.3775 C.3         1 TBL       0.0869
      6 C10       -12.1779  -15.2727   -4.3722 C.3         1 TBL      -0.0335
      7 C1        -11.8359  -13.2119   -3.0064 C.2         1 TBL       0.0561
      8 O2        -10.6996  -12.7197   -2.4585 O.co2       1 TBL      -0.5670
      9 O1        -12.9581  -13.2138   -2.2534 O.co2       1 TBL      -0.5670
     10 C3        -11.3586  -11.3076   -6.9724 C.ar        1 TBL       0.0970
     11 C4        -10.8465  -10.6739   -5.8297 C.ar        1 TBL      -0.0441
     12 C5         -9.8657   -9.6742   -5.9548 C.ar        1 TBL      -0.0313
     13 C6         -9.4356   -9.2429   -7.2283 C.ar        1 TBL       0.0908
     14 C8         -9.9563   -9.8785   -8.3747 C.ar        1 TBL      -0.0313
     15 C9        -10.9137  -10.9094   -8.2511 C.ar        1 TBL      -0.0441
     16 O5         -8.4626   -8.2739   -7.3888 O.3         1 TBL      -0.3212
     17 C7         -8.6475   -7.0455   -6.6540 C.3         1 TBL       0.0594
     18 H1        -13.6557  -12.8685   -4.7947 H           1 TBL       0.1696
     19 H2        -10.8248  -13.6528   -4.7934 H           1 TBL       0.0677
     20 H3        -11.4908  -15.8162   -3.7205 H           1 TBL       0.0266
     21 H4        -12.0846  -15.6747   -5.3815 H           1 TBL       0.0266
     22 H5        -13.2002  -15.4332   -4.0235 H           1 TBL       0.0266
     23 H6        -11.1587  -10.9275   -4.9013 H           1 TBL       0.0608
     24 H7         -9.4750   -9.2680   -5.1110 H           1 TBL       0.0542
     25 H8         -9.6331   -9.6015   -9.3044 H           1 TBL       0.0542
     26 H9        -11.2704  -11.3645   -9.0963 H           1 TBL       0.0608
     27 H10        -7.8405   -6.3612   -6.9188 H           1 TBL       0.0577
     28 H11        -8.5946   -7.2076   -5.5768 H           1 TBL       0.0577
     29 H12        -9.6014   -6.5697   -6.9003 H           1 TBL       0.0577
@<TRIPOS>BOND
     1     1     2   2
     2     2     3   2
     3     2     4  am
     4     2    10   1
     5     4     5   1
     6     5     6   1
     7     5     7   1
     8     7     8  ar
     9     7     9  ar
    10    10    11  ar
    11    10    15  ar
    12    11    12  ar
    13    12    13  ar
    14    13    14  ar
    15    13    16   1
    16    14    15  ar
    17    16    17   1
    18     4    18   1
    19     5    19   1
    20     6    20   1
    21     6    21   1
    22     6    22   1
    23    11    23   1
    24    12    24   1
    25    14    25   1
    26    15    26   1
    27    17    27   1
    28    17    28   1
    29    17    29   1
@<TRIPOS>SUBSTRUCTURE
     1  TBL      5

