@<TRIPOS>MOLECULE
3ehy_ligand_019
    29    29
SMALL
GAST_HUCK
****
This file was generated by PARSER (from files_GN.cpp)

@<TRIPOS>ATOM
      1 O4         -2.7845   -1.9703   -4.7519 O.2         1 TBL      -0.1516
      2 S1         -2.1221   -3.3976   -4.5404 S.o2        1 TBL       0.0650
      3 O3         -2.6205   -3.8083   -3.0855 O.2         1 TBL      -0.1516
      4 N1         -0.4557   -3.1270   -4.5409 N.am        1 TBL      -0.2329
      5 C2          0.4147   -3.6519   -3.5526 C.3         1 TBL       0.0869
      6 C10         1.6063   -2.6740   -3.3842 C.3         1 TBL      -0.0335
      7 C1          0.8460   -5.0047   -3.9551 C.2         1 TBL       0.0561
      8 O2          0.9329   -6.0018   -3.0355 O.co2       1 TBL      -0.5670
      9 O1          1.0657   -5.3178   -5.2532 O.co2       1 TBL      -0.5670
     10 C3         -2.7512   -4.4936   -5.7401 C.ar        1 TBL       0.0970
     11 C4         -4.0852   -4.9401   -5.6563 C.ar        1 TBL      -0.0441
     12 C5         -4.6095   -5.8045   -6.6374 C.ar        1 TBL      -0.0313
     13 C6         -3.8111   -6.2482   -7.7119 C.ar        1 TBL       0.0908
     14 C8         -2.4727   -5.8014   -7.7956 C.ar        1 TBL      -0.0313
     15 C9         -1.9532   -4.9145   -6.8263 C.ar        1 TBL      -0.0441
     16 O5         -4.3297   -7.1521   -8.5983 O.3         1 TBL      -0.3212
     17 C7         -4.2157   -6.7944   -9.9911 C.3         1 TBL       0.0594
     18 H1         -0.0506   -2.8378   -5.3795 H           1 TBL       0.1696
     19 H2         -0.0963   -3.6972   -2.5907 H           1 TBL       0.0677
     20 H3          2.2956   -3.0406   -2.6204 H           1 TBL       0.0266
     21 H4          1.2359   -1.6969   -3.0694 H           1 TBL       0.0266
     22 H5          2.1561   -2.5494   -4.3250 H           1 TBL       0.0266
     23 H6         -4.6908   -4.6423   -4.8835 H           1 TBL       0.0608
     24 H7         -5.5793   -6.1237   -6.5661 H           1 TBL       0.0542
     25 H8         -1.8740   -6.1155   -8.5577 H           1 TBL       0.0542
     26 H9         -0.9938   -4.5728   -6.9141 H           1 TBL       0.0608
     27 H10        -4.7985   -7.5024  -10.5859 H           1 TBL       0.0577
     28 H11        -3.1782   -6.8646  -10.3186 H           1 TBL       0.0577
     29 H12        -4.5963   -5.7881  -10.1904 H           1 TBL       0.0577
@<TRIPOS>BOND
     1     1     2   2
     2     2     3   2
     3     2     4  am
     4     2    10   1
     5     4     5   1
     6     5     6   1
     7     5     7   1
     8     7     8  ar
     9     7     9  ar
    10    10    11  ar
    11    10    15  ar
    12    11    12  ar
    13    12    13  ar
    14    13    14  ar
    15    13    16   1
    16    14    15  ar
    17    16    17   1
    18     4    18   1
    19     5    19   1
    20     6    20   1
    21     6    21   1
    22     6    22   1
    23    11    23   1
    24    12    24   1
    25    14    25   1
    26    15    26   1
    27    17    27   1
    28    17    28   1
    29    17    29   1
@<TRIPOS>SUBSTRUCTURE
     1  TBL      5

