@<TRIPOS>MOLECULE
3ehy_ligand_005
    29    29
SMALL
GAST_HUCK
****
This file was generated by PARSER (from files_GN.cpp)

@<TRIPOS>ATOM
      1 O4          0.2753    1.1611   -5.0259 O.2         1 TBL      -0.1516
      2 S1          0.2960    0.1151   -3.8270 S.o2        1 TBL       0.0650
      3 O3          1.6542    0.3091   -3.0182 O.2         1 TBL      -0.1516
      4 N1          0.3340   -1.4258   -4.5153 N.am        1 TBL      -0.2329
      5 C2         -0.5790   -2.4732   -4.1759 C.3         1 TBL       0.0869
      6 C10        -0.2104   -3.7593   -4.9594 C.3         1 TBL      -0.0335
      7 C1         -1.9829   -2.0993   -4.4370 C.2         1 TBL       0.0561
      8 O2         -2.9881   -2.7087   -3.7711 O.co2       1 TBL      -0.5670
      9 O1         -2.3162   -1.0135   -5.1685 O.co2       1 TBL      -0.5670
     10 C3         -1.0620    0.4222   -2.7709 C.ar        1 TBL       0.0970
     11 C4         -1.0575   -0.1046   -1.4599 C.ar        1 TBL      -0.0441
     12 C5         -2.1497    0.1111   -0.6028 C.ar        1 TBL      -0.0313
     13 C6         -3.2558    0.8722   -1.0375 C.ar        1 TBL       0.0908
     14 C8         -3.2677    1.3930   -2.3456 C.ar        1 TBL      -0.0313
     15 C9         -2.1803    1.1697   -3.2088 C.ar        1 TBL      -0.0441
     16 O5         -4.3382    1.0473   -0.2225 O.3         1 TBL      -0.3212
     17 C7         -4.1861    2.1394    0.6995 C.3         1 TBL       0.0594
     18 H1          1.0500   -1.6263   -5.1387 H           1 TBL       0.1696
     19 H2         -0.4643   -2.6897   -3.1122 H           1 TBL       0.0677
     20 H3         -0.8757   -4.5838   -4.6853 H           1 TBL       0.0266
     21 H4          0.8152   -4.0578   -4.7272 H           1 TBL       0.0266
     22 H5         -0.2875   -3.5913   -6.0383 H           1 TBL       0.0266
     23 H6         -0.2648   -0.6563   -1.1252 H           1 TBL       0.0608
     24 H7         -2.1405   -0.2831    0.3392 H           1 TBL       0.0542
     25 H8         -4.0697    1.9390   -2.6700 H           1 TBL       0.0542
     26 H9         -2.2158    1.5507   -4.1586 H           1 TBL       0.0608
     27 H10        -5.0996    2.2128    1.2900 H           1 TBL       0.0577
     28 H11        -4.0437    3.0882    0.1730 H           1 TBL       0.0577
     29 H12        -3.3504    1.9684    1.3853 H           1 TBL       0.0577
@<TRIPOS>BOND
     1     1     2   2
     2     2     3   2
     3     2     4  am
     4     2    10   1
     5     4     5   1
     6     5     6   1
     7     5     7   1
     8     7     8  ar
     9     7     9  ar
    10    10    11  ar
    11    10    15  ar
    12    11    12  ar
    13    12    13  ar
    14    13    14  ar
    15    13    16   1
    16    14    15  ar
    17    16    17   1
    18     4    18   1
    19     5    19   1
    20     6    20   1
    21     6    21   1
    22     6    22   1
    23    11    23   1
    24    12    24   1
    25    14    25   1
    26    15    26   1
    27    17    27   1
    28    17    28   1
    29    17    29   1
@<TRIPOS>SUBSTRUCTURE
     1  TBL      5

