@<TRIPOS>MOLECULE
3ehy_ligand_012
    29    29
SMALL
GAST_HUCK
****
This file was generated by PARSER (from files_GN.cpp)

@<TRIPOS>ATOM
      1 O4         -1.8062   -7.2280   -6.9391 O.2         1 TBL      -0.1516
      2 S1         -2.1280   -5.8415   -7.6450 S.o2        1 TBL       0.0650
      3 O3         -0.9289   -5.4473   -8.6112 O.2         1 TBL      -0.1516
      4 N1         -2.3515   -4.6704   -6.4490 N.am        1 TBL      -0.2329
      5 C2         -1.3107   -4.0727   -5.6651 C.3         1 TBL       0.0869
      6 C10        -0.1177   -5.0045   -5.3200 C.3         1 TBL      -0.0335
      7 C1         -1.9464   -3.5093   -4.4501 C.2         1 TBL       0.0561
      8 O2         -2.8582   -2.5220   -4.5688 O.co2       1 TBL      -0.5670
      9 O1         -1.7022   -3.9695   -3.2007 O.co2       1 TBL      -0.5670
     10 C3         -3.5467   -6.1349   -8.6141 C.ar        1 TBL       0.0970
     11 C4         -4.8198   -5.7103   -8.1749 C.ar        1 TBL      -0.0441
     12 C5         -5.9596   -5.9669   -8.9516 C.ar        1 TBL      -0.0313
     13 C6         -5.8579   -6.6869  -10.1593 C.ar        1 TBL       0.0908
     14 C8         -4.5889   -7.1170  -10.5952 C.ar        1 TBL      -0.0313
     15 C9         -3.4415   -6.8433   -9.8306 C.ar        1 TBL      -0.0441
     16 O5         -6.9498   -6.9175  -10.9539 O.3         1 TBL      -0.3212
     17 C7         -7.9170   -7.8299  -10.4056 C.3         1 TBL       0.0594
     18 H1         -3.1971   -4.1955   -6.4726 H           1 TBL       0.1696
     19 H2         -0.9081   -3.2332   -6.2349 H           1 TBL       0.0677
     20 H3          0.5891   -4.5149   -4.6572 H           1 TBL       0.0266
     21 H4          0.4179   -5.2835   -6.2271 H           1 TBL       0.0266
     22 H5         -0.4793   -5.9200   -4.8374 H           1 TBL       0.0266
     23 H6         -4.9305   -5.2076   -7.2928 H           1 TBL       0.0608
     24 H7         -6.8694   -5.6269   -8.6333 H           1 TBL       0.0542
     25 H8         -4.4953   -7.6326  -11.4754 H           1 TBL       0.0542
     26 H9         -2.5299   -7.1649  -10.1636 H           1 TBL       0.0608
     27 H10        -8.7139   -7.9645  -11.1397 H           1 TBL       0.0577
     28 H11        -8.3669   -7.4307   -9.4940 H           1 TBL       0.0577
     29 H12        -7.4711   -8.8037  -10.1980 H           1 TBL       0.0577
@<TRIPOS>BOND
     1     1     2   2
     2     2     3   2
     3     2     4  am
     4     2    10   1
     5     4     5   1
     6     5     6   1
     7     5     7   1
     8     7     8  ar
     9     7     9  ar
    10    10    11  ar
    11    10    15  ar
    12    11    12  ar
    13    12    13  ar
    14    13    14  ar
    15    13    16   1
    16    14    15  ar
    17    16    17   1
    18     4    18   1
    19     5    19   1
    20     6    20   1
    21     6    21   1
    22     6    22   1
    23    11    23   1
    24    12    24   1
    25    14    25   1
    26    15    26   1
    27    17    27   1
    28    17    28   1
    29    17    29   1
@<TRIPOS>SUBSTRUCTURE
     1  TBL      5

