@<TRIPOS>MOLECULE
3ehy_ligand_000
    29    29
SMALL
GAST_HUCK
****
This file was generated by PARSER (from files_GN.cpp)

@<TRIPOS>ATOM
      1 O4         -1.1016   -4.0382   -6.0267 O.2         1 TBL      -0.1516
      2 S1         -2.4838   -4.4463   -5.3570 S.o2        1 TBL       0.0650
      3 O3         -3.0679   -3.0348   -4.9084 O.2         1 TBL      -0.1516
      4 N1         -2.1925   -5.3087   -3.9339 N.am        1 TBL      -0.2329
      5 C2         -1.0734   -6.1612   -3.6893 C.3         1 TBL       0.0869
      6 C10         0.2804   -5.3946   -3.6595 C.3         1 TBL      -0.0335
      7 C1         -1.0724   -7.3154   -4.6190 C.2         1 TBL       0.0561
      8 O2         -0.0795   -7.5128   -5.5180 O.co2       1 TBL      -0.5670
      9 O1         -2.1294   -8.1689   -4.6430 O.co2       1 TBL      -0.5670
     10 C3         -3.5793   -5.2058   -6.4829 C.ar        1 TBL       0.0970
     11 C4         -4.6690   -5.9556   -6.0034 C.ar        1 TBL      -0.0441
     12 C5         -5.5370   -6.6105   -6.8991 C.ar        1 TBL      -0.0313
     13 C6         -5.3377   -6.5245   -8.2901 C.ar        1 TBL       0.0908
     14 C8         -4.2388   -5.7729   -8.7769 C.ar        1 TBL      -0.0313
     15 C9         -3.3703   -5.1168   -7.8797 C.ar        1 TBL      -0.0441
     16 O5         -6.1655   -7.2590   -9.1041 O.3         1 TBL      -0.3212
     17 C7         -6.2422   -6.8367  -10.4772 C.3         1 TBL       0.0594
     18 H1         -2.8764   -5.2618   -3.2338 H           1 TBL       0.1696
     19 H2         -1.2150   -6.5695   -2.6927 H           1 TBL       0.0677
     20 H3          1.0690   -6.0586   -3.2838 H           1 TBL       0.0266
     21 H4          0.2159   -4.5398   -2.9850 H           1 TBL       0.0266
     22 H5          0.5679   -5.0319   -4.6534 H           1 TBL       0.0266
     23 H6         -4.8309   -6.0498   -5.0003 H           1 TBL       0.0608
     24 H7         -6.3127   -7.1652   -6.5286 H           1 TBL       0.0542
     25 H8         -4.0614   -5.7129   -9.7862 H           1 TBL       0.0542
     26 H9         -2.5762   -4.5923   -8.2589 H           1 TBL       0.0608
     27 H10        -7.0722   -7.3662  -10.9633 H           1 TBL       0.0577
     28 H11        -5.3210   -7.0946  -11.0021 H           1 TBL       0.0577
     29 H12        -6.4329   -5.7623  -10.5624 H           1 TBL       0.0577
@<TRIPOS>BOND
     1     1     2   2
     2     2     3   2
     3     2     4  am
     4     2    10   1
     5     4     5   1
     6     5     6   1
     7     5     7   1
     8     7     8  ar
     9     7     9  ar
    10    10    11  ar
    11    10    15  ar
    12    11    12  ar
    13    12    13  ar
    14    13    14  ar
    15    13    16   1
    16    14    15  ar
    17    16    17   1
    18     4    18   1
    19     5    19   1
    20     6    20   1
    21     6    21   1
    22     6    22   1
    23    11    23   1
    24    12    24   1
    25    14    25   1
    26    15    26   1
    27    17    27   1
    28    17    28   1
    29    17    29   1
@<TRIPOS>SUBSTRUCTURE
     1  TBL      5

