@<TRIPOS>MOLECULE
3ehy_ligand_016
    29    29
SMALL
GAST_HUCK
****
This file was generated by PARSER (from files_GN.cpp)

@<TRIPOS>ATOM
      1 O4         -5.5566   -6.9249  -10.8267 O.2         1 TBL      -0.1516
      2 S1         -6.0856   -7.1212   -9.3400 S.o2        1 TBL       0.0650
      3 O3         -5.9359   -8.6697   -8.9942 O.2         1 TBL      -0.1516
      4 N1         -7.7081   -6.6756   -9.2238 N.am        1 TBL      -0.2329
      5 C2         -8.8381   -7.5620   -9.2302 C.3         1 TBL       0.0869
      6 C10        -9.2229   -7.9821   -7.7845 C.3         1 TBL      -0.0335
      7 C1         -8.7156   -8.6912  -10.1740 C.2         1 TBL       0.0561
      8 O2         -9.4614   -8.7028  -11.3078 O.co2       1 TBL      -0.5670
      9 O1         -7.7224   -9.6091  -10.0482 O.co2       1 TBL      -0.5670
     10 C3         -5.0679   -6.3784   -8.1397 C.ar        1 TBL       0.0970
     11 C4         -5.2390   -6.7045   -6.7792 C.ar        1 TBL      -0.0441
     12 C5         -4.3712   -6.1780   -5.8075 C.ar        1 TBL      -0.0313
     13 C6         -3.3321   -5.3043   -6.1848 C.ar        1 TBL       0.0908
     14 C8         -3.1474   -4.9916   -7.5468 C.ar        1 TBL      -0.0313
     15 C9         -4.0100   -5.5217   -8.5215 C.ar        1 TBL      -0.0441
     16 O5         -2.4734   -4.8084   -5.2420 O.3         1 TBL      -0.3212
     17 C7         -2.8057   -3.4714   -4.8339 C.3         1 TBL       0.0594
     18 H1         -7.8882   -5.7373   -9.0413 H           1 TBL       0.1696
     19 H2         -9.6743   -6.9503   -9.5834 H           1 TBL       0.0677
     20 H3        -10.0887   -8.6448   -7.8029 H           1 TBL       0.0266
     21 H4         -9.4831   -7.1021   -7.1897 H           1 TBL       0.0266
     22 H5         -8.3958   -8.4977   -7.2978 H           1 TBL       0.0266
     23 H6         -5.9862   -7.3431   -6.4867 H           1 TBL       0.0608
     24 H7         -4.4954   -6.4356   -4.8245 H           1 TBL       0.0542
     25 H8         -2.3801   -4.3770   -7.8323 H           1 TBL       0.0542
     26 H9         -3.8554   -5.2904   -9.5058 H           1 TBL       0.0608
     27 H10        -2.0691   -3.1460   -4.0996 H           1 TBL       0.0577
     28 H11        -3.7934   -3.4334   -4.3664 H           1 TBL       0.0577
     29 H12        -2.7720   -2.7763   -5.6775 H           1 TBL       0.0577
@<TRIPOS>BOND
     1     1     2   2
     2     2     3   2
     3     2     4  am
     4     2    10   1
     5     4     5   1
     6     5     6   1
     7     5     7   1
     8     7     8  ar
     9     7     9  ar
    10    10    11  ar
    11    10    15  ar
    12    11    12  ar
    13    12    13  ar
    14    13    14  ar
    15    13    16   1
    16    14    15  ar
    17    16    17   1
    18     4    18   1
    19     5    19   1
    20     6    20   1
    21     6    21   1
    22     6    22   1
    23    11    23   1
    24    12    24   1
    25    14    25   1
    26    15    26   1
    27    17    27   1
    28    17    28   1
    29    17    29   1
@<TRIPOS>SUBSTRUCTURE
     1  TBL      5

