@<TRIPOS>MOLECULE
3ehy_ligand_029
    29    29
SMALL
GAST_HUCK
****
This file was generated by PARSER (from files_GN.cpp)

@<TRIPOS>ATOM
      1 O4         -1.2541  -14.7803   -8.3106 O.2         1 TBL      -0.1516
      2 S1         -0.1112  -13.8299   -7.7432 S.o2        1 TBL       0.0650
      3 O3          0.5370  -13.1493   -9.0287 O.2         1 TBL      -0.1516
      4 N1          1.0312  -14.8482   -7.0289 N.am        1 TBL      -0.2329
      5 C2          2.3392  -14.4348   -6.6231 C.3         1 TBL       0.0869
      6 C10         3.4122  -14.9569   -7.6107 C.3         1 TBL      -0.0335
      7 C1          2.5750  -14.9128   -5.2448 C.2         1 TBL       0.0561
      8 O2          2.7569  -14.0342   -4.2306 O.co2       1 TBL      -0.5670
      9 O1          2.5307  -16.2330   -4.9526 O.co2       1 TBL      -0.5670
     10 C3         -0.7784  -12.6502   -6.6419 C.ar        1 TBL       0.0970
     11 C4          0.0380  -11.5852   -6.2115 C.ar        1 TBL      -0.0441
     12 C5         -0.4341  -10.6410   -5.2856 C.ar        1 TBL      -0.0313
     13 C6         -1.7368  -10.7520   -4.7603 C.ar        1 TBL       0.0908
     14 C8         -2.5714  -11.7949   -5.2090 C.ar        1 TBL      -0.0313
     15 C9         -2.1003  -12.7378   -6.1469 C.ar        1 TBL      -0.0441
     16 O5         -2.2220   -9.8204   -3.8824 O.3         1 TBL      -0.3212
     17 C7         -1.7431   -9.9773   -2.5341 C.3         1 TBL       0.0594
     18 H1          0.8082  -15.7914   -6.9480 H           1 TBL       0.1696
     19 H2          2.4097  -13.3456   -6.6220 H           1 TBL       0.0677
     20 H3          4.4067  -14.6248   -7.2996 H           1 TBL       0.0266
     21 H4          3.2172  -14.5664   -8.6136 H           1 TBL       0.0266
     22 H5          3.3998  -16.0490   -7.6538 H           1 TBL       0.0266
     23 H6          0.9900  -11.4909   -6.5627 H           1 TBL       0.0608
     24 H7          0.1792   -9.8796   -4.9934 H           1 TBL       0.0542
     25 H8         -3.5242  -11.8680   -4.8440 H           1 TBL       0.0542
     26 H9         -2.7277  -13.4874   -6.4502 H           1 TBL       0.0608
     27 H10        -2.1735   -9.1800   -1.9307 H           1 TBL       0.0577
     28 H11        -0.6547   -9.8922   -2.4736 H           1 TBL       0.0577
     29 H12        -2.0570  -10.9354   -2.1130 H           1 TBL       0.0577
@<TRIPOS>BOND
     1     1     2   2
     2     2     3   2
     3     2     4  am
     4     2    10   1
     5     4     5   1
     6     5     6   1
     7     5     7   1
     8     7     8  ar
     9     7     9  ar
    10    10    11  ar
    11    10    15  ar
    12    11    12  ar
    13    12    13  ar
    14    13    14  ar
    15    13    16   1
    16    14    15  ar
    17    16    17   1
    18     4    18   1
    19     5    19   1
    20     6    20   1
    21     6    21   1
    22     6    22   1
    23    11    23   1
    24    12    24   1
    25    14    25   1
    26    15    26   1
    27    17    27   1
    28    17    28   1
    29    17    29   1
@<TRIPOS>SUBSTRUCTURE
     1  TBL      5

