@<TRIPOS>MOLECULE
3ehy_ligand_022
    29    29
SMALL
GAST_HUCK
****
This file was generated by PARSER (from files_GN.cpp)

@<TRIPOS>ATOM
      1 O4         -7.5739   -9.1317   -7.1548 O.2         1 TBL      -0.1516
      2 S1         -7.7003   -7.5575   -7.3449 S.o2        1 TBL       0.0650
      3 O3         -8.6221   -7.0767   -6.1416 O.2         1 TBL      -0.1516
      4 N1         -8.5125   -7.2101   -8.7874 N.am        1 TBL      -0.2329
      5 C2         -8.8328   -8.1000   -9.8626 C.3         1 TBL       0.0869
      6 C10        -9.8279   -9.2260   -9.4897 C.3         1 TBL      -0.0335
      7 C1         -7.6231   -8.6146  -10.5406 C.2         1 TBL       0.0561
      8 O2         -6.8554   -9.5748   -9.9779 O.co2       1 TBL      -0.5670
      9 O1         -7.1584   -7.9860  -11.6456 O.co2       1 TBL      -0.5670
     10 C3         -6.0890   -6.8918   -7.2572 C.ar        1 TBL       0.0970
     11 C4         -5.2702   -6.8705   -8.4061 C.ar        1 TBL      -0.0441
     12 C5         -3.9594   -6.3733   -8.3392 C.ar        1 TBL      -0.0313
     13 C6         -3.4352   -5.9023   -7.1186 C.ar        1 TBL       0.0908
     14 C8         -4.2565   -5.9054   -5.9729 C.ar        1 TBL      -0.0313
     15 C9         -5.5693   -6.4047   -6.0387 C.ar        1 TBL      -0.0441
     16 O5         -2.1762   -5.3673   -7.0338 O.3         1 TBL      -0.3212
     17 C7         -1.1000   -6.2986   -7.2497 C.3         1 TBL       0.0594
     18 H1         -8.6901   -6.2710   -8.9403 H           1 TBL       0.1696
     19 H2         -9.3649   -7.4763  -10.5920 H           1 TBL       0.0677
     20 H3        -10.1032   -9.7958  -10.3829 H           1 TBL       0.0266
     21 H4        -10.7381   -8.7948   -9.0622 H           1 TBL       0.0266
     22 H5         -9.3774   -9.9039   -8.7613 H           1 TBL       0.0266
     23 H6         -5.6181   -7.2220   -9.2978 H           1 TBL       0.0608
     24 H7         -3.3824   -6.3663   -9.1817 H           1 TBL       0.0542
     25 H8         -3.8941   -5.5501   -5.0829 H           1 TBL       0.0542
     26 H9         -6.1360   -6.4197   -5.1897 H           1 TBL       0.0608
     27 H10        -0.1574   -5.7713   -7.1005 H           1 TBL       0.0577
     28 H11        -1.1089   -6.6857   -8.2713 H           1 TBL       0.0577
     29 H12        -1.1444   -7.1317   -6.5434 H           1 TBL       0.0577
@<TRIPOS>BOND
     1     1     2   2
     2     2     3   2
     3     2     4  am
     4     2    10   1
     5     4     5   1
     6     5     6   1
     7     5     7   1
     8     7     8  ar
     9     7     9  ar
    10    10    11  ar
    11    10    15  ar
    12    11    12  ar
    13    12    13  ar
    14    13    14  ar
    15    13    16   1
    16    14    15  ar
    17    16    17   1
    18     4    18   1
    19     5    19   1
    20     6    20   1
    21     6    21   1
    22     6    22   1
    23    11    23   1
    24    12    24   1
    25    14    25   1
    26    15    26   1
    27    17    27   1
    28    17    28   1
    29    17    29   1
@<TRIPOS>SUBSTRUCTURE
     1  TBL      5

