@<TRIPOS>MOLECULE
3ehy_ligand_015
    29    29
SMALL
GAST_HUCK
****
This file was generated by PARSER (from files_GN.cpp)

@<TRIPOS>ATOM
      1 O4        -13.1512  -12.6729   -9.4466 O.2         1 TBL      -0.1516
      2 S1        -12.7702  -12.4831   -7.9158 S.o2        1 TBL       0.0650
      3 O3        -12.2117  -13.8572   -7.3400 O.2         1 TBL      -0.1516
      4 N1        -14.1511  -12.0571   -7.0492 N.am        1 TBL      -0.2329
      5 C2        -15.3202  -12.8732   -6.9781 C.3         1 TBL       0.0869
      6 C10       -16.3170  -12.4562   -8.0889 C.3         1 TBL      -0.0335
      7 C1        -15.8831  -12.7844   -5.6127 C.2         1 TBL       0.0561
      8 O2        -17.1854  -12.4890   -5.3814 O.co2       1 TBL      -0.5670
      9 O1        -15.1294  -13.1681   -4.5593 O.co2       1 TBL      -0.5670
     10 C3        -11.5046  -11.3025   -7.6838 C.ar        1 TBL       0.0970
     11 C4        -10.8467  -10.7310   -8.7888 C.ar        1 TBL      -0.0441
     12 C5         -9.8092   -9.7927   -8.5960 C.ar        1 TBL      -0.0313
     13 C6         -9.4178   -9.4137   -7.2976 C.ar        1 TBL       0.0908
     14 C8        -10.0661   -9.9913   -6.1884 C.ar        1 TBL      -0.0313
     15 C9        -11.1062  -10.9262   -6.3801 C.ar        1 TBL      -0.0441
     16 O5         -8.3442   -8.5756   -7.1712 O.3         1 TBL      -0.3212
     17 C7         -8.6302   -7.2967   -6.5829 C.3         1 TBL       0.0594
     18 H1        -14.2307  -11.1274   -6.7873 H           1 TBL       0.1696
     19 H2        -15.0593  -13.9209   -7.1444 H           1 TBL       0.0677
     20 H3        -17.2070  -13.0924   -8.0730 H           1 TBL       0.0266
     21 H4        -15.8533  -12.5534   -9.0719 H           1 TBL       0.0266
     22 H5        -16.6286  -11.4155   -7.9583 H           1 TBL       0.0266
     23 H6        -11.1016  -10.9937   -9.7478 H           1 TBL       0.0608
     24 H7         -9.3285   -9.3953   -9.4122 H           1 TBL       0.0542
     25 H8         -9.7762   -9.7423   -5.2435 H           1 TBL       0.0542
     26 H9        -11.5598  -11.3419   -5.5662 H           1 TBL       0.0608
     27 H10        -7.7404   -6.6693   -6.6845 H           1 TBL       0.0577
     28 H11        -8.8531   -7.4085   -5.5191 H           1 TBL       0.0577
     29 H12        -9.4593   -6.7867   -7.0828 H           1 TBL       0.0577
@<TRIPOS>BOND
     1     1     2   2
     2     2     3   2
     3     2     4  am
     4     2    10   1
     5     4     5   1
     6     5     6   1
     7     5     7   1
     8     7     8  ar
     9     7     9  ar
    10    10    11  ar
    11    10    15  ar
    12    11    12  ar
    13    12    13  ar
    14    13    14  ar
    15    13    16   1
    16    14    15  ar
    17    16    17   1
    18     4    18   1
    19     5    19   1
    20     6    20   1
    21     6    21   1
    22     6    22   1
    23    11    23   1
    24    12    24   1
    25    14    25   1
    26    15    26   1
    27    17    27   1
    28    17    28   1
    29    17    29   1
@<TRIPOS>SUBSTRUCTURE
     1  TBL      5

