@<TRIPOS>MOLECULE
3ehy_ligand_008
    29    29
SMALL
GAST_HUCK
****
This file was generated by PARSER (from files_GN.cpp)

@<TRIPOS>ATOM
      1 O4         -2.3878   -0.5385   -4.4975 O.2         1 TBL      -0.1516
      2 S1         -0.8236   -0.3812   -4.2664 S.o2        1 TBL       0.0650
      3 O3         -0.3269    0.6281   -5.3907 O.2         1 TBL      -0.1516
      4 N1         -0.0503   -1.8471   -4.5756 N.am        1 TBL      -0.2329
      5 C2         -0.5445   -3.1008   -4.0995 C.3         1 TBL       0.0869
      6 C10         0.6026   -4.1403   -4.1732 C.3         1 TBL      -0.0335
      7 C1         -1.7544   -3.4949   -4.8593 C.2         1 TBL       0.0561
      8 O2         -2.8763   -2.7406   -4.7785 O.co2       1 TBL      -0.5670
      9 O1         -1.8279   -4.6414   -5.5780 O.co2       1 TBL      -0.5670
     10 C3         -0.4061    0.3269   -2.7317 C.ar        1 TBL       0.0970
     11 C4          0.9147    0.7662   -2.5007 C.ar        1 TBL      -0.0441
     12 C5          1.2581    1.3676   -1.2741 C.ar        1 TBL      -0.0313
     13 C6          0.2858    1.5403   -0.2687 C.ar        1 TBL       0.0908
     14 C8         -1.0281    1.0782   -0.4892 C.ar        1 TBL      -0.0313
     15 C9         -1.3745    0.4805   -1.7167 C.ar        1 TBL      -0.0441
     16 O5          0.6286    2.0996    0.9348 O.3         1 TBL      -0.3212
     17 C7          0.8391    3.5204    0.8628 C.3         1 TBL       0.0594
     18 H1          0.6811   -1.8526   -5.2162 H           1 TBL       0.1696
     19 H2         -0.8286   -3.0117   -3.0473 H           1 TBL       0.0677
     20 H3          0.2670   -5.1022   -3.7794 H           1 TBL       0.0266
     21 H4          1.4550   -3.8095   -3.5757 H           1 TBL       0.0266
     22 H5          0.9342   -4.2799   -5.2058 H           1 TBL       0.0266
     23 H6          1.6348    0.6568   -3.2199 H           1 TBL       0.0608
     24 H7          2.2177    1.6823   -1.1132 H           1 TBL       0.0542
     25 H8         -1.7359    1.1775    0.2437 H           1 TBL       0.0542
     26 H9         -2.3340    0.1601   -1.8618 H           1 TBL       0.0608
     27 H10         1.1070    3.8756    1.8590 H           1 TBL       0.0577
     28 H11        -0.0666    4.0460    0.5492 H           1 TBL       0.0577
     29 H12         1.6556    3.7694    0.1796 H           1 TBL       0.0577
@<TRIPOS>BOND
     1     1     2   2
     2     2     3   2
     3     2     4  am
     4     2    10   1
     5     4     5   1
     6     5     6   1
     7     5     7   1
     8     7     8  ar
     9     7     9  ar
    10    10    11  ar
    11    10    15  ar
    12    11    12  ar
    13    12    13  ar
    14    13    14  ar
    15    13    16   1
    16    14    15  ar
    17    16    17   1
    18     4    18   1
    19     5    19   1
    20     6    20   1
    21     6    21   1
    22     6    22   1
    23    11    23   1
    24    12    24   1
    25    14    25   1
    26    15    26   1
    27    17    27   1
    28    17    28   1
    29    17    29   1
@<TRIPOS>SUBSTRUCTURE
     1  TBL      5

