@<TRIPOS>MOLECULE
3ehy_ligand_021
    29    29
SMALL
GAST_HUCK
****
This file was generated by PARSER (from files_GN.cpp)

@<TRIPOS>ATOM
      1 O4         -7.0781   -7.3438  -11.1263 O.2         1 TBL      -0.1516
      2 S1         -6.8207   -7.6019   -9.5766 S.o2        1 TBL       0.0650
      3 O3         -6.4688   -9.1344   -9.4090 O.2         1 TBL      -0.1516
      4 N1         -8.2181   -7.2351   -8.7036 N.am        1 TBL      -0.2329
      5 C2         -9.1194   -8.2104   -8.1841 C.3         1 TBL       0.0869
      6 C10       -10.2831   -8.4306   -9.1799 C.3         1 TBL      -0.0335
      7 C1         -9.6173   -7.7847   -6.8572 C.2         1 TBL       0.0561
      8 O2        -10.0392   -8.7115   -5.9645 O.co2       1 TBL      -0.5670
      9 O1         -9.7612   -6.4804   -6.5347 O.co2       1 TBL      -0.5670
     10 C3         -5.4600   -6.7230   -8.9399 C.ar        1 TBL       0.0970
     11 C4         -4.6494   -5.9598   -9.7987 C.ar        1 TBL      -0.0441
     12 C5         -3.5589   -5.2255   -9.2892 C.ar        1 TBL      -0.0313
     13 C6         -3.2324   -5.2896   -7.9191 C.ar        1 TBL       0.0908
     14 C8         -4.0691   -6.0367   -7.0543 C.ar        1 TBL      -0.0313
     15 C9         -5.1731   -6.7499   -7.5569 C.ar        1 TBL      -0.0441
     16 O5         -2.1916   -4.5806   -7.3765 O.3         1 TBL      -0.3212
     17 C7         -0.8771   -4.8768   -7.8880 C.3         1 TBL       0.0594
     18 H1         -8.4968   -6.3053   -8.6893 H           1 TBL       0.1696
     19 H2         -8.6120   -9.1676   -8.0309 H           1 TBL       0.0677
     20 H3        -10.9939   -9.1564   -8.7790 H           1 TBL       0.0266
     21 H4         -9.8921   -8.8111  -10.1275 H           1 TBL       0.0266
     22 H5        -10.8088   -7.4903   -9.3696 H           1 TBL       0.0266
     23 H6         -4.8514   -5.9241  -10.8006 H           1 TBL       0.0608
     24 H7         -2.9996   -4.6477   -9.9196 H           1 TBL       0.0542
     25 H8         -3.8729   -6.0607   -6.0485 H           1 TBL       0.0542
     26 H9         -5.7655   -7.2856   -6.9092 H           1 TBL       0.0608
     27 H10        -0.1533   -4.2828   -7.3406 H           1 TBL       0.0577
     28 H11        -0.7924   -4.6205   -8.9478 H           1 TBL       0.0577
     29 H12        -0.6239   -5.9277   -7.7499 H           1 TBL       0.0577
@<TRIPOS>BOND
     1     1     2   2
     2     2     3   2
     3     2     4  am
     4     2    10   1
     5     4     5   1
     6     5     6   1
     7     5     7   1
     8     7     8  ar
     9     7     9  ar
    10    10    11  ar
    11    10    15  ar
    12    11    12  ar
    13    12    13  ar
    14    13    14  ar
    15    13    16   1
    16    14    15  ar
    17    16    17   1
    18     4    18   1
    19     5    19   1
    20     6    20   1
    21     6    21   1
    22     6    22   1
    23    11    23   1
    24    12    24   1
    25    14    25   1
    26    15    26   1
    27    17    27   1
    28    17    28   1
    29    17    29   1
@<TRIPOS>SUBSTRUCTURE
     1  TBL      5

