@<TRIPOS>MOLECULE
3ehy_ligand_018
    29    29
SMALL
GAST_HUCK
****
This file was generated by PARSER (from files_GN.cpp)

@<TRIPOS>ATOM
      1 O4        -12.2511  -14.0365   -7.1484 O.2         1 TBL      -0.1516
      2 S1        -12.7698  -12.7605   -6.3529 S.o2        1 TBL       0.0650
      3 O3        -12.9513  -13.1810   -4.8303 O.2         1 TBL      -0.1516
      4 N1        -14.2440  -12.2290   -6.9810 N.am        1 TBL      -0.2329
      5 C2        -15.1495  -13.0627   -7.7046 C.3         1 TBL       0.0869
      6 C10       -14.7485  -13.1573   -9.2009 C.3         1 TBL      -0.0335
      7 C1        -16.5183  -12.5358   -7.5302 C.2         1 TBL       0.0561
      8 O2        -17.1745  -12.7557   -6.3677 O.co2       1 TBL      -0.5670
      9 O1        -16.9444  -11.4926   -8.2819 O.co2       1 TBL      -0.5670
     10 C3        -11.5288  -11.5516   -6.5546 C.ar        1 TBL       0.0970
     11 C4        -10.7824  -11.1021   -5.4450 C.ar        1 TBL      -0.0441
     12 C5         -9.7682  -10.1394   -5.6124 C.ar        1 TBL      -0.0313
     13 C6         -9.5025   -9.5889   -6.8848 C.ar        1 TBL       0.0908
     14 C8        -10.2432  -10.0489   -7.9948 C.ar        1 TBL      -0.0313
     15 C9        -11.2524  -11.0179   -7.8312 C.ar        1 TBL      -0.0441
     16 O5         -8.4987   -8.6752   -7.0728 O.3         1 TBL      -0.3212
     17 C7         -8.7500   -7.3746   -6.5035 C.3         1 TBL       0.0594
     18 H1        -14.3971  -11.2694   -6.9926 H           1 TBL       0.1696
     19 H2        -15.1313  -14.0745   -7.2889 H           1 TBL       0.0677
     20 H3        -15.4753  -13.7582   -9.7514 H           1 TBL       0.0266
     21 H4        -13.7719  -13.6307   -9.2998 H           1 TBL       0.0266
     22 H5        -14.6983  -12.1666   -9.6576 H           1 TBL       0.0266
     23 H6        -10.9653  -11.4706   -4.5100 H           1 TBL       0.0608
     24 H7         -9.2283   -9.8329   -4.8034 H           1 TBL       0.0542
     25 H8        -10.0519   -9.6714   -8.9268 H           1 TBL       0.0542
     26 H9        -11.7856  -11.3274   -8.6494 H           1 TBL       0.0608
     27 H10        -7.9366   -6.7089   -6.7942 H           1 TBL       0.0577
     28 H11        -8.7761   -7.4172   -5.4124 H           1 TBL       0.0577
     29 H12        -9.6842   -6.9468   -6.8731 H           1 TBL       0.0577
@<TRIPOS>BOND
     1     1     2   2
     2     2     3   2
     3     2     4  am
     4     2    10   1
     5     4     5   1
     6     5     6   1
     7     5     7   1
     8     7     8  ar
     9     7     9  ar
    10    10    11  ar
    11    10    15  ar
    12    11    12  ar
    13    12    13  ar
    14    13    14  ar
    15    13    16   1
    16    14    15  ar
    17    16    17   1
    18     4    18   1
    19     5    19   1
    20     6    20   1
    21     6    21   1
    22     6    22   1
    23    11    23   1
    24    12    24   1
    25    14    25   1
    26    15    26   1
    27    17    27   1
    28    17    28   1
    29    17    29   1
@<TRIPOS>SUBSTRUCTURE
     1  TBL      5

