@<TRIPOS>MOLECULE
3ehy_ligand_025
    29    29
SMALL
GAST_HUCK
****
This file was generated by PARSER (from files_GN.cpp)

@<TRIPOS>ATOM
      1 O4        -11.9569  -14.0574   -6.6260 O.2         1 TBL      -0.1516
      2 S1        -12.6030  -12.5995   -6.6351 S.o2        1 TBL       0.0650
      3 O3        -13.1819  -12.4791   -5.1585 O.2         1 TBL      -0.1516
      4 N1        -14.0097  -12.5782   -7.5648 N.am        1 TBL      -0.2329
      5 C2        -14.0944  -12.8165   -8.9756 C.3         1 TBL       0.0869
      6 C10       -15.5395  -12.4905   -9.4211 C.3         1 TBL      -0.0335
      7 C1        -13.6485  -14.1791   -9.3720 C.2         1 TBL       0.0561
      8 O2        -12.6021  -14.7680   -8.7322 O.co2       1 TBL      -0.5670
      9 O1        -14.1869  -14.8548  -10.4158 O.co2       1 TBL      -0.5670
     10 C3        -11.3984  -11.3409   -6.8046 C.ar        1 TBL       0.0970
     11 C4        -10.9372  -10.9680   -8.0841 C.ar        1 TBL      -0.0441
     12 C5         -9.9563   -9.9719   -8.2273 C.ar        1 TBL      -0.0313
     13 C6         -9.4144   -9.3334   -7.0948 C.ar        1 TBL       0.0908
     14 C8         -9.8431   -9.7370   -5.8103 C.ar        1 TBL      -0.0313
     15 C9        -10.8369  -10.7207   -5.6678 C.ar        1 TBL      -0.0441
     16 O5         -8.4244   -8.4044   -7.2654 O.3         1 TBL      -0.3212
     17 C7         -8.6618   -7.1427   -6.6083 C.3         1 TBL       0.0594
     18 H1        -14.8124  -12.2444   -7.1182 H           1 TBL       0.1696
     19 H2        -13.4478  -12.0943   -9.4773 H           1 TBL       0.0677
     20 H3        -15.6429  -12.5930  -10.5008 H           1 TBL       0.0266
     21 H4        -15.7936  -11.4624   -9.1500 H           1 TBL       0.0266
     22 H5        -16.2594  -13.1588   -8.9366 H           1 TBL       0.0266
     23 H6        -11.2974  -11.4272   -8.9226 H           1 TBL       0.0608
     24 H7         -9.6252   -9.7241   -9.1606 H           1 TBL       0.0542
     25 H8         -9.4249   -9.3192   -4.9810 H           1 TBL       0.0542
     26 H9        -11.1330  -10.9839   -4.7245 H           1 TBL       0.0608
     27 H10        -7.8714   -6.4497   -6.8976 H           1 TBL       0.0577
     28 H11        -8.6312   -7.2569   -5.5227 H           1 TBL       0.0577
     29 H12        -9.6214   -6.7096   -6.9018 H           1 TBL       0.0577
@<TRIPOS>BOND
     1     1     2   2
     2     2     3   2
     3     2     4  am
     4     2    10   1
     5     4     5   1
     6     5     6   1
     7     5     7   1
     8     7     8  ar
     9     7     9  ar
    10    10    11  ar
    11    10    15  ar
    12    11    12  ar
    13    12    13  ar
    14    13    14  ar
    15    13    16   1
    16    14    15  ar
    17    16    17   1
    18     4    18   1
    19     5    19   1
    20     6    20   1
    21     6    21   1
    22     6    22   1
    23    11    23   1
    24    12    24   1
    25    14    25   1
    26    15    26   1
    27    17    27   1
    28    17    28   1
    29    17    29   1
@<TRIPOS>SUBSTRUCTURE
     1  TBL      5

