@<TRIPOS>MOLECULE
3ehy_ligand_004
    29    29
SMALL
GAST_HUCK
****
This file was generated by PARSER (from files_GN.cpp)

@<TRIPOS>ATOM
      1 O4         -4.2027   -5.9854   -9.8046 O.2         1 TBL      -0.1516
      2 S1         -4.9664   -6.2609   -8.4357 S.o2        1 TBL       0.0650
      3 O3         -4.6366   -7.7651   -8.0364 O.2         1 TBL      -0.1516
      4 N1         -6.6375   -6.0791   -8.6357 N.am        1 TBL      -0.2329
      5 C2         -7.5451   -7.1240   -8.9972 C.3         1 TBL       0.0869
      6 C10        -8.0031   -7.8984   -7.7360 C.3         1 TBL      -0.0335
      7 C1         -7.0196   -7.9862  -10.0856 C.2         1 TBL       0.0561
      8 O2         -6.7748   -7.4561  -11.3048 O.co2       1 TBL      -0.5670
      9 O1         -6.6809   -9.2774   -9.8745 O.co2       1 TBL      -0.5670
     10 C3         -4.3036   -5.3126   -7.1333 C.ar        1 TBL       0.0970
     11 C4         -3.1168   -4.5661   -7.3172 C.ar        1 TBL      -0.0441
     12 C5         -2.6217   -3.7506   -6.2814 C.ar        1 TBL      -0.0313
     13 C6         -3.3006   -3.6725   -5.0507 C.ar        1 TBL       0.0908
     14 C8         -4.4683   -4.4322   -4.8581 C.ar        1 TBL      -0.0313
     15 C9         -4.9592   -5.2627   -5.8854 C.ar        1 TBL      -0.0441
     16 O5         -2.9048   -2.7703   -4.1065 O.3         1 TBL      -0.3212
     17 C7         -1.9197   -3.2848   -3.1953 C.3         1 TBL       0.0594
     18 H1         -7.0316   -5.2604   -8.2947 H           1 TBL       0.1696
     19 H2         -8.4380   -6.6347   -9.3949 H           1 TBL       0.0677
     20 H3         -8.7375   -8.6582   -8.0083 H           1 TBL       0.0266
     21 H4         -8.4674   -7.2124   -7.0269 H           1 TBL       0.0266
     22 H5         -7.1607   -8.3853   -7.2480 H           1 TBL       0.0266
     23 H6         -2.6196   -4.5882   -8.2095 H           1 TBL       0.0608
     24 H7         -1.7819   -3.1913   -6.4377 H           1 TBL       0.0542
     25 H8         -4.9910   -4.3476   -3.9863 H           1 TBL       0.0542
     26 H9         -5.8171   -5.7984   -5.7283 H           1 TBL       0.0608
     27 H10        -1.6677   -2.4958   -2.4882 H           1 TBL       0.0577
     28 H11        -1.0065   -3.5778   -3.7170 H           1 TBL       0.0577
     29 H12        -2.3083   -4.1355   -2.6326 H           1 TBL       0.0577
@<TRIPOS>BOND
     1     1     2   2
     2     2     3   2
     3     2     4  am
     4     2    10   1
     5     4     5   1
     6     5     6   1
     7     5     7   1
     8     7     8  ar
     9     7     9  ar
    10    10    11  ar
    11    10    15  ar
    12    11    12  ar
    13    12    13  ar
    14    13    14  ar
    15    13    16   1
    16    14    15  ar
    17    16    17   1
    18     4    18   1
    19     5    19   1
    20     6    20   1
    21     6    21   1
    22     6    22   1
    23    11    23   1
    24    12    24   1
    25    14    25   1
    26    15    26   1
    27    17    27   1
    28    17    28   1
    29    17    29   1
@<TRIPOS>SUBSTRUCTURE
     1  TBL      5

