@<TRIPOS>MOLECULE
3ehy_ligand_011
    29    29
SMALL
GAST_HUCK
****
This file was generated by PARSER (from files_GN.cpp)

@<TRIPOS>ATOM
      1 O4          0.3661   -6.8176   -1.7622 O.2         1 TBL      -0.1516
      2 S1         -0.3402   -6.7959   -3.1901 S.o2        1 TBL       0.0650
      3 O3          0.7694   -6.4901   -4.2890 O.2         1 TBL      -0.1516
      4 N1         -1.5131   -5.5835   -3.2206 N.am        1 TBL      -0.2329
      5 C2         -1.2514   -4.2511   -3.6749 C.3         1 TBL       0.0869
      6 C10        -0.0366   -3.6001   -2.9613 C.3         1 TBL      -0.0335
      7 C1         -2.4612   -3.4309   -3.4748 C.2         1 TBL       0.0561
      8 O2         -2.9227   -2.6339   -4.4627 O.co2       1 TBL      -0.5670
      9 O1         -3.1033   -3.4339   -2.2826 O.co2       1 TBL      -0.5670
     10 C3         -1.0216   -8.3735   -3.4891 C.ar        1 TBL       0.0970
     11 C4         -0.7599   -9.0666   -4.6933 C.ar        1 TBL      -0.0441
     12 C5         -1.2709  -10.3640   -4.8861 C.ar        1 TBL      -0.0313
     13 C6         -2.0696  -10.9755   -3.8991 C.ar        1 TBL       0.0908
     14 C8         -2.3289  -10.2830   -2.6971 C.ar        1 TBL      -0.0313
     15 C9         -1.8228   -8.9852   -2.5005 C.ar        1 TBL      -0.0441
     16 O5         -2.4964  -12.2589   -4.1093 O.3         1 TBL      -0.3212
     17 C7         -3.8306  -12.5364   -3.6539 C.3         1 TBL       0.0594
     18 H1         -2.4028   -5.8047   -2.8879 H           1 TBL       0.1696
     19 H2         -1.0362   -4.2883   -4.7483 H           1 TBL       0.0677
     20 H3          0.0771   -2.5597   -3.2730 H           1 TBL       0.0266
     21 H4          0.8851   -4.1276   -3.2166 H           1 TBL       0.0266
     22 H5         -0.1621   -3.6244   -1.8766 H           1 TBL       0.0266
     23 H6         -0.1810   -8.6399   -5.4217 H           1 TBL       0.0608
     24 H7         -1.0593  -10.8549   -5.7577 H           1 TBL       0.0542
     25 H8         -2.8897  -10.7234   -1.9648 H           1 TBL       0.0542
     26 H9         -2.0220   -8.4964   -1.6217 H           1 TBL       0.0608
     27 H10        -4.1390  -13.5035   -4.0530 H           1 TBL       0.0577
     28 H11        -4.5449  -11.7842   -3.9970 H           1 TBL       0.0577
     29 H12        -3.8522  -12.5902   -2.5643 H           1 TBL       0.0577
@<TRIPOS>BOND
     1     1     2   2
     2     2     3   2
     3     2     4  am
     4     2    10   1
     5     4     5   1
     6     5     6   1
     7     5     7   1
     8     7     8  ar
     9     7     9  ar
    10    10    11  ar
    11    10    15  ar
    12    11    12  ar
    13    12    13  ar
    14    13    14  ar
    15    13    16   1
    16    14    15  ar
    17    16    17   1
    18     4    18   1
    19     5    19   1
    20     6    20   1
    21     6    21   1
    22     6    22   1
    23    11    23   1
    24    12    24   1
    25    14    25   1
    26    15    26   1
    27    17    27   1
    28    17    28   1
    29    17    29   1
@<TRIPOS>SUBSTRUCTURE
     1  TBL      5

