@<TRIPOS>MOLECULE
3ehy_ligand_003
    29    29
SMALL
GAST_HUCK
****
This file was generated by PARSER (from files_GN.cpp)

@<TRIPOS>ATOM
      1 O4         -3.9700   -3.6819   -4.3310 O.2         1 TBL      -0.1516
      2 S1         -2.9321   -4.4767   -5.2396 S.o2        1 TBL       0.0650
      3 O3         -2.2995   -5.6571   -4.3758 O.2         1 TBL      -0.1516
      4 N1         -1.7147   -3.4282   -5.7719 N.am        1 TBL      -0.2329
      5 C2         -0.6943   -2.8243   -4.9596 C.3         1 TBL       0.0869
      6 C10         0.3522   -3.8726   -4.4908 C.3         1 TBL      -0.0335
      7 C1         -1.2628   -1.9861   -3.8796 C.2         1 TBL       0.0561
      8 O2         -0.6038   -1.7406   -2.7151 O.co2       1 TBL      -0.5670
      9 O1         -2.5153   -1.4933   -4.0175 O.co2       1 TBL      -0.5670
     10 C3         -3.8244   -5.2569   -6.5235 C.ar        1 TBL       0.0970
     11 C4         -3.5379   -4.9995   -7.8825 C.ar        1 TBL      -0.0441
     12 C5         -4.2499   -5.6698   -8.8978 C.ar        1 TBL      -0.0313
     13 C6         -5.2658   -6.5874   -8.5701 C.ar        1 TBL       0.0908
     14 C8         -5.5427   -6.8527   -7.2149 C.ar        1 TBL      -0.0313
     15 C9         -4.8332   -6.1889   -6.1988 C.ar        1 TBL      -0.0441
     16 O5         -5.9372   -7.2537   -9.5562 O.3         1 TBL      -0.3212
     17 C7         -6.9869   -6.4720  -10.1583 C.3         1 TBL       0.0594
     18 H1         -1.7177   -3.1749   -6.7100 H           1 TBL       0.1696
     19 H2         -0.1658   -2.1356   -5.6168 H           1 TBL       0.0677
     20 H3          1.2086   -3.3754   -4.0260 H           1 TBL       0.0266
     21 H4          0.7118   -4.4472   -5.3502 H           1 TBL       0.0266
     22 H5         -0.0858   -4.5673   -3.7623 H           1 TBL       0.0266
     23 H6         -2.8062   -4.3350   -8.1463 H           1 TBL       0.0608
     24 H7         -4.0248   -5.4762   -9.8799 H           1 TBL       0.0542
     25 H8         -6.2676   -7.5298   -6.9724 H           1 TBL       0.0542
     26 H9         -5.0516   -6.4010   -5.2266 H           1 TBL       0.0608
     27 H10        -7.4750   -7.0803  -10.9242 H           1 TBL       0.0577
     28 H11        -6.5872   -5.5755  -10.6428 H           1 TBL       0.0577
     29 H12        -7.7424   -6.1815   -9.4209 H           1 TBL       0.0577
@<TRIPOS>BOND
     1     1     2   2
     2     2     3   2
     3     2     4  am
     4     2    10   1
     5     4     5   1
     6     5     6   1
     7     5     7   1
     8     7     8  ar
     9     7     9  ar
    10    10    11  ar
    11    10    15  ar
    12    11    12  ar
    13    12    13  ar
    14    13    14  ar
    15    13    16   1
    16    14    15  ar
    17    16    17   1
    18     4    18   1
    19     5    19   1
    20     6    20   1
    21     6    21   1
    22     6    22   1
    23    11    23   1
    24    12    24   1
    25    14    25   1
    26    15    26   1
    27    17    27   1
    28    17    28   1
    29    17    29   1
@<TRIPOS>SUBSTRUCTURE
     1  TBL      5

