@<TRIPOS>MOLECULE
3ehy_ligand_030
    29    29
SMALL
GAST_HUCK
****
This file was generated by PARSER (from files_GN.cpp)

@<TRIPOS>ATOM
      1 O4         -5.7982   -5.5564   -9.8208 O.2         1 TBL      -0.1516
      2 S1         -5.0747   -6.9658   -9.6876 S.o2        1 TBL       0.0650
      3 O3         -4.5076   -7.4011  -11.1077 O.2         1 TBL      -0.1516
      4 N1         -6.1680   -8.1246   -9.1275 N.am        1 TBL      -0.2329
      5 C2         -7.2146   -8.7374   -9.8861 C.3         1 TBL       0.0869
      6 C10        -6.6689   -9.8218  -10.8405 C.3         1 TBL      -0.0335
      7 C1         -8.0911   -7.7612  -10.5610 C.2         1 TBL       0.0561
      8 O2         -9.2356   -7.3554   -9.9681 O.co2       1 TBL      -0.5670
      9 O1         -7.7068   -7.1390  -11.6932 O.co2       1 TBL      -0.5670
     10 C3         -3.7025   -6.7431   -8.6325 C.ar        1 TBL       0.0970
     11 C4         -2.4635   -6.3220   -9.1652 C.ar        1 TBL      -0.0441
     12 C5         -1.3433   -6.1503   -8.3330 C.ar        1 TBL      -0.0313
     13 C6         -1.4463   -6.3827   -6.9474 C.ar        1 TBL       0.0908
     14 C8         -2.6803   -6.8025   -6.4079 C.ar        1 TBL      -0.0313
     15 C9         -3.8045   -6.9703   -7.2422 C.ar        1 TBL      -0.0441
     16 O5         -0.3373   -6.2482   -6.1568 O.3         1 TBL      -0.3212
     17 C7         -0.2562   -4.9716   -5.5011 C.3         1 TBL       0.0594
     18 H1         -5.9710   -8.5143   -8.2632 H           1 TBL       0.1696
     19 H2         -7.8373   -9.2641   -9.1569 H           1 TBL       0.0677
     20 H3         -7.4918  -10.3239  -11.3539 H           1 TBL       0.0266
     21 H4         -6.1039  -10.5713  -10.2816 H           1 TBL       0.0266
     22 H5         -6.0090   -9.3801  -11.5896 H           1 TBL       0.0266
     23 H6         -2.3643   -6.1434  -10.1656 H           1 TBL       0.0608
     24 H7         -0.4528   -5.8536   -8.7394 H           1 TBL       0.0542
     25 H8         -2.7644   -6.9842   -5.4051 H           1 TBL       0.0542
     26 H9         -4.6925   -7.2666   -6.8294 H           1 TBL       0.0608
     27 H10         0.6623   -4.9525   -4.9127 H           1 TBL       0.0577
     28 H11        -1.0994   -4.8182   -4.8228 H           1 TBL       0.0577
     29 H12        -0.2133   -4.1532   -6.2247 H           1 TBL       0.0577
@<TRIPOS>BOND
     1     1     2   2
     2     2     3   2
     3     2     4  am
     4     2    10   1
     5     4     5   1
     6     5     6   1
     7     5     7   1
     8     7     8  ar
     9     7     9  ar
    10    10    11  ar
    11    10    15  ar
    12    11    12  ar
    13    12    13  ar
    14    13    14  ar
    15    13    16   1
    16    14    15  ar
    17    16    17   1
    18     4    18   1
    19     5    19   1
    20     6    20   1
    21     6    21   1
    22     6    22   1
    23    11    23   1
    24    12    24   1
    25    14    25   1
    26    15    26   1
    27    17    27   1
    28    17    28   1
    29    17    29   1
@<TRIPOS>SUBSTRUCTURE
     1  TBL      5

