@<TRIPOS>MOLECULE
3ejr_ligand_059
    55    57
SMALL
GAST_HUCK
****
This file was generated by PARSER (from files_GN.cpp)

@<TRIPOS>ATOM
      1 O10        26.9887   68.2780   12.2528 O.2         1 HN4      -0.3651
      2 C10        28.1029   68.2932   11.7566 C.2         1 HN4       0.1575
      3 C11        29.1974   68.7301   12.5274 C.ar        1 HN4       0.0598
      4 C12        29.0037   69.5332   13.6839 C.ar        1 HN4      -0.0155
      5 C13        30.0968   69.9974   14.4426 C.ar        1 HN4      -0.0354
      6 C14        31.4375   69.6890   14.1022 C.ar        1 HN4      -0.0449
      7 C17        32.6548   70.1743   14.8796 C.3         1 HN4      -0.0433
      8 C18        32.3119   70.9591   16.1902 C.3         1 HN4      -0.0831
      9 C19        33.5462   68.9610   15.3206 C.3         1 HN4      -0.0831
     10 C20        33.4956   71.1311   13.9702 C.3         1 HN4      -0.0831
     11 C15        31.6157   68.8957   12.9426 C.ar        1 HN4      -0.0354
     12 C16        30.5290   68.3992   12.2015 C.ar        1 HN4      -0.0155
     13 C9         28.1838   67.9334   10.3370 C.3         1 HN4       0.0697
     14 C5         28.2462   66.3843   10.0835 C.3         1 HN4      -0.0046
     15 N4         28.9161   65.9511    8.8083 N.4         1 HN4       0.2468
     16 C3         30.3702   66.1933    8.5919 C.3         1 HN4      -0.0017
     17 C2         30.5603   66.4442    7.0733 C.3         1 HN4       0.1259
     18 O2         31.6679   65.7483    6.5021 O.3         1 HN4      -0.3837
     19 C1         29.2127   66.0312    6.4487 C.3         1 HN4       0.1307
     20 O1         29.2093   64.6479    6.0868 O.3         1 HN4      -0.3833
     21 C8A        28.2196   66.3891    7.5776 C.3         1 HN4       0.0353
     22 C8         26.8028   65.7514    7.5008 C.3         1 HN4       0.1004
     23 O8         26.0413   66.2755    6.4120 O.3         1 HN4      -0.3861
     24 C7         26.0061   66.0062    8.8125 C.3         1 HN4      -0.0162
     25 C6         26.8347   65.7090   10.0961 C.3         1 HN4      -0.0050
     26 H1         28.0614   69.8114   13.9663 H           1 HN4       0.0743
     27 H2         29.8799   70.5764   15.2530 H           1 HN4       0.0855
     28 H3         33.2174   71.2621   16.7195 H           1 HN4       0.0140
     29 H4         31.7307   70.3361   16.8686 H           1 HN4       0.0140
     30 H5         31.7429   71.8618   15.9717 H           1 HN4       0.0140
     31 H6         33.9458   68.4075   14.4707 H           1 HN4       0.0140
     32 H7         32.9730   68.2667   15.9332 H           1 HN4       0.0140
     33 H8         34.4006   69.2956   15.9129 H           1 HN4       0.0140
     34 H9         32.8821   71.9633   13.6209 H           1 HN4       0.0140
     35 H10        33.8918   70.6153   13.0965 H           1 HN4       0.0140
     36 H11        34.3480   71.5450   14.5168 H           1 HN4       0.0140
     37 H12        32.5531   68.6603   12.6187 H           1 HN4       0.0855
     38 H13        30.7287   67.7831   11.4101 H           1 HN4       0.0743
     39 H14        29.0435   68.4208    9.8866 H           1 HN4       0.0545
     40 H15        27.3224   68.3677    9.8227 H           1 HN4       0.0545
     41 H16        28.8266   65.9307   10.8916 H           1 HN4       0.0877
     42 H17        28.8328   64.9324    8.8046 H           1 HN4       0.2043
     43 H18        30.9209   65.3053    8.9127 H           1 HN4       0.0841
     44 H19        30.7490   67.0462    9.1555 H           1 HN4       0.0841
     45 H20        30.7148   67.5190    6.9031 H           1 HN4       0.0675
     46 H21        32.4664   66.1595    6.9020 H           1 HN4       0.2101
     47 H22        29.0034   66.6194    5.5483 H           1 HN4       0.0679
     48 H23        29.7137   64.1673    6.7838 H           1 HN4       0.2102
     49 H24        28.0999   67.4790    7.5802 H           1 HN4       0.0904
     50 H25        26.8989   64.6708    7.3602 H           1 HN4       0.0651
     51 H26        26.6653   66.8125    5.8812 H           1 HN4       0.2100
     52 H27        25.1083   65.3836    8.8165 H           1 HN4       0.0294
     53 H28        25.6717   67.0461    8.8357 H           1 HN4       0.0294
     54 H29        26.2684   66.0245   10.9733 H           1 HN4       0.0322
     55 H30        26.9649   64.6244   10.1741 H           1 HN4       0.0322
@<TRIPOS>BOND
     1     1     2   2
     2     2     3   1
     3     2    13   1
     4     3     4  ar
     5     3    12  ar
     6     4     5  ar
     7     5     6  ar
     8     6     7   1
     9     6    11  ar
    10     7     8   1
    11     7     9   1
    12     7    10   1
    13    11    12  ar
    14    13    14   1
    15    14    15   1
    16    14    25   1
    17    15    16   1
    18    15    21   1
    19    16    17   1
    20    17    18   1
    21    17    19   1
    22    19    20   1
    23    19    21   1
    24    21    22   1
    25    22    23   1
    26    22    24   1
    27    24    25   1
    28     4    26   1
    29     5    27   1
    30     8    28   1
    31     8    29   1
    32     8    30   1
    33     9    31   1
    34     9    32   1
    35     9    33   1
    36    10    34   1
    37    10    35   1
    38    10    36   1
    39    11    37   1
    40    12    38   1
    41    13    39   1
    42    13    40   1
    43    14    41   1
    44    15    42   1
    45    16    43   1
    46    16    44   1
    47    17    45   1
    48    18    46   1
    49    19    47   1
    50    20    48   1
    51    21    49   1
    52    22    50   1
    53    23    51   1
    54    24    52   1
    55    24    53   1
    56    25    54   1
    57    25    55   1
@<TRIPOS>SUBSTRUCTURE
     1  HN4      2

