@<TRIPOS>MOLECULE
3ejr_ligand_020
    55    57
SMALL
GAST_HUCK
****
This file was generated by PARSER (from files_GN.cpp)

@<TRIPOS>ATOM
      1 O10        27.1583   64.1049   10.1969 O.2         1 HN4      -0.3651
      2 C10        28.1653   64.5693   10.7260 C.2         1 HN4       0.1575
      3 C11        28.0780   65.0493   12.0392 C.ar        1 HN4       0.0598
      4 C12        29.1693   64.9778   12.9360 C.ar        1 HN4      -0.0155
      5 C13        29.0988   65.5581   14.2162 C.ar        1 HN4      -0.0354
      6 C14        27.9394   66.2349   14.6773 C.ar        1 HN4      -0.0449
      7 C17        27.9412   66.8912   16.0503 C.3         1 HN4      -0.0433
      8 C18        29.0134   68.0332   16.0726 C.3         1 HN4      -0.0831
      9 C19        26.5743   67.5433   16.4591 C.3         1 HN4      -0.0831
     10 C20        28.2846   65.8336   17.1560 C.3         1 HN4      -0.0831
     11 C15        26.8333   66.2567   13.7844 C.ar        1 HN4      -0.0354
     12 C16        26.8994   65.6802   12.5014 C.ar        1 HN4      -0.0155
     13 C9         29.3505   64.7568    9.8839 C.3         1 HN4       0.0697
     14 C5         29.7692   66.2677    9.6860 C.3         1 HN4      -0.0046
     15 N4         29.8442   66.7646    8.2718 N.4         1 HN4       0.2468
     16 C3         28.6355   66.6578    7.4186 C.3         1 HN4      -0.0017
     17 C2         29.1557   66.7819    5.9640 C.3         1 HN4       0.1259
     18 O2         28.5497   67.8801    5.2802 O.3         1 HN4      -0.3837
     19 C1         30.6987   66.8727    6.0731 C.3         1 HN4       0.1307
     20 O1         31.1531   68.2221    5.9637 O.3         1 HN4      -0.3833
     21 C8A        30.9808   66.2646    7.4642 C.3         1 HN4       0.0353
     22 C8         32.3399   66.6369    8.1326 C.3         1 HN4       0.1004
     23 O8         33.4349   66.0554    7.4202 O.3         1 HN4      -0.3861
     24 C7         32.3651   66.1289    9.5999 C.3         1 HN4      -0.0162
     25 C6         31.1200   66.6196   10.3870 C.3         1 HN4      -0.0050
     26 H1         30.0280   64.4929   12.6759 H           1 HN4       0.0743
     27 H2         29.9310   65.4941   14.8061 H           1 HN4       0.0855
     28 H3         29.0358   68.5383   17.0412 H           1 HN4       0.0140
     29 H4         28.7931   68.7794   15.3054 H           1 HN4       0.0140
     30 H5         30.0181   67.6495   15.8872 H           1 HN4       0.0140
     31 H6         25.7786   66.7941   16.4849 H           1 HN4       0.0140
     32 H7         26.2899   68.3266   15.7532 H           1 HN4       0.0140
     33 H8         26.6297   68.0001   17.4512 H           1 HN4       0.0140
     34 H9         29.2900   65.4286   17.0295 H           1 HN4       0.0140
     35 H10        27.5774   65.0002   17.1250 H           1 HN4       0.0140
     36 H11        28.2416   66.2764   18.1558 H           1 HN4       0.0140
     37 H12        25.9596   66.7171   14.0374 H           1 HN4       0.0855
     38 H13        26.0836   65.7611   11.8885 H           1 HN4       0.0743
     39 H14        29.1810   64.3076    8.9029 H           1 HN4       0.0545
     40 H15        30.1702   64.1791   10.3152 H           1 HN4       0.0545
     41 H16        29.0173   66.9055   10.1690 H           1 HN4       0.0877
     42 H17        30.0044   67.7716    8.3642 H           1 HN4       0.2043
     43 H18        27.9446   67.4643    7.6701 H           1 HN4       0.0841
     44 H19        28.1073   65.7115    7.5380 H           1 HN4       0.0841
     45 H20        28.8964   65.8742    5.4050 H           1 HN4       0.0675
     46 H21        28.3131   68.5257    5.9831 H           1 HN4       0.2101
     47 H22        31.1813   66.2860    5.2878 H           1 HN4       0.0679
     48 H23        32.0803   68.1729    5.6407 H           1 HN4       0.2102
     49 H24        30.9285   65.1749    7.3790 H           1 HN4       0.0904
     50 H25        32.4751   67.7234    8.1508 H           1 HN4       0.0651
     51 H26        33.8230   66.7764    6.8723 H           1 HN4       0.2100
     52 H27        33.2670   66.4983   10.0948 H           1 HN4       0.0294
     53 H28        32.4016   65.0355    9.6160 H           1 HN4       0.0294
     54 H29        31.1414   66.1955   11.3916 H           1 HN4       0.0322
     55 H30        31.1896   67.7040   10.4929 H           1 HN4       0.0322
@<TRIPOS>BOND
     1     1     2   2
     2     2     3   1
     3     2    13   1
     4     3     4  ar
     5     3    12  ar
     6     4     5  ar
     7     5     6  ar
     8     6     7   1
     9     6    11  ar
    10     7     8   1
    11     7     9   1
    12     7    10   1
    13    11    12  ar
    14    13    14   1
    15    14    15   1
    16    14    25   1
    17    15    16   1
    18    15    21   1
    19    16    17   1
    20    17    18   1
    21    17    19   1
    22    19    20   1
    23    19    21   1
    24    21    22   1
    25    22    23   1
    26    22    24   1
    27    24    25   1
    28     4    26   1
    29     5    27   1
    30     8    28   1
    31     8    29   1
    32     8    30   1
    33     9    31   1
    34     9    32   1
    35     9    33   1
    36    10    34   1
    37    10    35   1
    38    10    36   1
    39    11    37   1
    40    12    38   1
    41    13    39   1
    42    13    40   1
    43    14    41   1
    44    15    42   1
    45    16    43   1
    46    16    44   1
    47    17    45   1
    48    18    46   1
    49    19    47   1
    50    20    48   1
    51    21    49   1
    52    22    50   1
    53    23    51   1
    54    24    52   1
    55    24    53   1
    56    25    54   1
    57    25    55   1
@<TRIPOS>SUBSTRUCTURE
     1  HN4      2

