@<TRIPOS>MOLECULE
3ejr_ligand_022
    55    57
SMALL
GAST_HUCK
****
This file was generated by PARSER (from files_GN.cpp)

@<TRIPOS>ATOM
      1 O10        27.9812   68.1448   10.8694 O.2         1 HN4      -0.3651
      2 C10        27.1666   67.8220   11.7288 C.2         1 HN4       0.1575
      3 C11        27.6580   67.6114   13.0142 C.ar        1 HN4       0.0598
      4 C12        27.0580   68.2114   14.1452 C.ar        1 HN4      -0.0155
      5 C13        27.5807   68.0079   15.4359 C.ar        1 HN4      -0.0354
      6 C14        28.7526   67.2386   15.6651 C.ar        1 HN4      -0.0449
      7 C17        29.3090   67.0843   17.0759 C.3         1 HN4      -0.0433
      8 C18        28.3437   66.1800   17.9131 C.3         1 HN4      -0.0831
      9 C19        30.7355   66.4322   17.1446 C.3         1 HN4      -0.0831
     10 C20        29.4434   68.4859   17.7660 C.3         1 HN4      -0.0831
     11 C15        29.3259   66.6217   14.5191 C.ar        1 HN4      -0.0354
     12 C16        28.8007   66.8083   13.2295 C.ar        1 HN4      -0.0155
     13 C9         25.7678   67.5880   11.3612 C.3         1 HN4       0.0697
     14 C5         25.2990   68.0774    9.9418 C.3         1 HN4      -0.0046
     15 N4         23.8134   68.1642    9.7128 N.4         1 HN4       0.2468
     16 C3         22.9834   69.0701   10.5441 C.3         1 HN4      -0.0017
     17 C2         21.5362   68.5242   10.4573 C.3         1 HN4       0.1259
     18 O2         20.6144   69.5201   10.0082 O.3         1 HN4      -0.3837
     19 C1         21.6125   67.2909    9.5266 C.3         1 HN4       0.1307
     20 O1         21.2009   67.6144    8.1909 O.3         1 HN4      -0.3833
     21 C8A        23.0977   66.8689    9.6429 C.3         1 HN4       0.0353
     22 C8         23.6495   66.0190    8.4680 C.3         1 HN4       0.1004
     23 O8         22.9983   64.7531    8.4381 O.3         1 HN4      -0.3861
     24 C7         25.1865   65.8487    8.5917 C.3         1 HN4      -0.0162
     25 C6         25.8967   67.2201    8.7734 C.3         1 HN4      -0.0050
     26 H1         26.2484   68.8273   14.0385 H           1 HN4       0.0743
     27 H2         27.0939   68.4530   16.2184 H           1 HN4       0.0855
     28 H3         28.7238   66.0306   18.9271 H           1 HN4       0.0140
     29 H4         28.2362   65.2001   17.4395 H           1 HN4       0.0140
     30 H5         27.3495   66.6259   17.9976 H           1 HN4       0.0140
     31 H6         31.4561   67.0221   16.5710 H           1 HN4       0.0140
     32 H7         30.7212   65.4163   16.7436 H           1 HN4       0.0140
     33 H8         31.0999   66.3716   18.1732 H           1 HN4       0.0140
     34 H9         28.4747   68.9646   17.9077 H           1 HN4       0.0140
     35 H10        30.0666   69.1519   17.1648 H           1 HN4       0.0140
     36 H11        29.9014   68.3976   18.7546 H           1 HN4       0.0140
     37 H12        30.1418   66.0177   14.6021 H           1 HN4       0.0855
     38 H13        29.2559   66.3396   12.4418 H           1 HN4       0.0743
     39 H14        25.1573   68.0825   12.1078 H           1 HN4       0.0545
     40 H15        25.5685   66.5218   11.4663 H           1 HN4       0.0545
     41 H16        25.6762   69.0979    9.8179 H           1 HN4       0.0877
     42 H17        23.7178   68.5680    8.7771 H           1 HN4       0.2043
     43 H18        23.0533   70.0810   10.1353 H           1 HN4       0.0841
     44 H19        23.2877   69.1109   11.5892 H           1 HN4       0.0841
     45 H20        21.2124   68.1952   11.4512 H           1 HN4       0.0675
     46 H21        21.0166   69.8827    9.1890 H           1 HN4       0.2101
     47 H22        20.9594   66.4910    9.8862 H           1 HN4       0.0679
     48 H23        21.8149   68.3156    7.8865 H           1 HN4       0.2102
     49 H24        23.2309   66.3154   10.5803 H           1 HN4       0.0904
     50 H25        23.4353   66.5287    7.5280 H           1 HN4       0.0651
     51 H26        22.9171   64.5246    7.4889 H           1 HN4       0.2100
     52 H27        25.5692   65.3621    7.6901 H           1 HN4       0.0294
     53 H28        25.4200   65.1982    9.4383 H           1 HN4       0.0294
     54 H29        26.9651   67.0465    8.9156 H           1 HN4       0.0322
     55 H30        25.7914   67.7803    7.8406 H           1 HN4       0.0322
@<TRIPOS>BOND
     1     1     2   2
     2     2     3   1
     3     2    13   1
     4     3     4  ar
     5     3    12  ar
     6     4     5  ar
     7     5     6  ar
     8     6     7   1
     9     6    11  ar
    10     7     8   1
    11     7     9   1
    12     7    10   1
    13    11    12  ar
    14    13    14   1
    15    14    15   1
    16    14    25   1
    17    15    16   1
    18    15    21   1
    19    16    17   1
    20    17    18   1
    21    17    19   1
    22    19    20   1
    23    19    21   1
    24    21    22   1
    25    22    23   1
    26    22    24   1
    27    24    25   1
    28     4    26   1
    29     5    27   1
    30     8    28   1
    31     8    29   1
    32     8    30   1
    33     9    31   1
    34     9    32   1
    35     9    33   1
    36    10    34   1
    37    10    35   1
    38    10    36   1
    39    11    37   1
    40    12    38   1
    41    13    39   1
    42    13    40   1
    43    14    41   1
    44    15    42   1
    45    16    43   1
    46    16    44   1
    47    17    45   1
    48    18    46   1
    49    19    47   1
    50    20    48   1
    51    21    49   1
    52    22    50   1
    53    23    51   1
    54    24    52   1
    55    24    53   1
    56    25    54   1
    57    25    55   1
@<TRIPOS>SUBSTRUCTURE
     1  HN4      2

