@<TRIPOS>MOLECULE
3ejr_ligand_014
    55    57
SMALL
GAST_HUCK
****
This file was generated by PARSER (from files_GN.cpp)

@<TRIPOS>ATOM
      1 O10        28.9370   68.8931   10.8172 O.2         1 HN4      -0.3651
      2 C10        28.6968   67.7372   11.1332 C.2         1 HN4       0.1575
      3 C11        27.3803   67.3905   11.4534 C.ar        1 HN4       0.0598
      4 C12        27.0644   66.4794   12.4888 C.ar        1 HN4      -0.0155
      5 C13        25.7349   66.0894   12.7347 C.ar        1 HN4      -0.0354
      6 C14        24.6519   66.5447   11.9340 C.ar        1 HN4      -0.0449
      7 C17        23.2120   66.1289   12.2179 C.3         1 HN4      -0.0433
      8 C18        22.7928   66.7634   13.5806 C.3         1 HN4      -0.0831
      9 C19        22.1947   66.5997   11.1176 C.3         1 HN4      -0.0831
     10 C20        23.0455   64.5701   12.3116 C.3         1 HN4      -0.0831
     11 C15        24.9785   67.5167   10.9501 C.ar        1 HN4      -0.0354
     12 C16        26.3003   67.9386   10.7271 C.ar        1 HN4      -0.0155
     13 C9         29.8017   66.7768   11.0689 C.3         1 HN4       0.0697
     14 C5         29.9547   65.8805    9.7785 C.3         1 HN4      -0.0046
     15 N4         31.0368   66.1473    8.7670 N.4         1 HN4       0.2468
     16 C3         32.4439   66.2940    9.2088 C.3         1 HN4      -0.0017
     17 C2         33.2035   66.8598    7.9862 C.3         1 HN4       0.1259
     18 O2         34.1313   65.9074    7.4636 O.3         1 HN4      -0.3837
     19 C1         32.1069   67.2693    6.9704 C.3         1 HN4       0.1307
     20 O1         32.0908   66.3838    5.8458 O.3         1 HN4      -0.3833
     21 C8A        30.7961   67.2368    7.7966 C.3         1 HN4       0.0353
     22 C8         29.4888   66.9778    6.9949 C.3         1 HN4       0.1004
     23 O8         29.2309   68.0920    6.1465 O.3         1 HN4      -0.3861
     24 C7         28.2916   66.7318    7.9476 C.3         1 HN4      -0.0162
     25 C6         28.6155   65.6431    9.0060 C.3         1 HN4      -0.0050
     26 H1         27.7960   66.1181   13.1051 H           1 HN4       0.0743
     27 H2         25.5719   65.4612   13.5236 H           1 HN4       0.0855
     28 H3         21.7632   66.4970   13.8307 H           1 HN4       0.0140
     29 H4         22.8610   67.8537   13.5381 H           1 HN4       0.0140
     30 H5         23.4397   66.4139   14.3891 H           1 HN4       0.0140
     31 H6         22.5240   66.2740   10.1274 H           1 HN4       0.0140
     32 H7         22.0813   67.6849   11.1058 H           1 HN4       0.0140
     33 H8         21.1983   66.1883   11.2950 H           1 HN4       0.0140
     34 H9         23.5466   64.1575   13.1885 H           1 HN4       0.0140
     35 H10        23.4552   64.0869   11.4206 H           1 HN4       0.0140
     36 H11        21.9933   64.2871   12.3989 H           1 HN4       0.0140
     37 H12        24.2518   67.9449   10.3745 H           1 HN4       0.0855
     38 H13        26.4629   68.6424   10.0056 H           1 HN4       0.0743
     39 H14        29.7078   66.0816   11.9071 H           1 HN4       0.0545
     40 H15        30.7277   67.3199   11.2666 H           1 HN4       0.0545
     41 H16        30.2270   64.8955   10.1709 H           1 HN4       0.0877
     42 H17        31.0376   65.2969    8.1950 H           1 HN4       0.2043
     43 H18        32.8359   65.3244    9.5229 H           1 HN4       0.0841
     44 H19        32.5346   66.9940   10.0406 H           1 HN4       0.0841
     45 H20        33.7739   67.7412    8.2892 H           1 HN4       0.0675
     46 H21        34.6393   66.3918    6.7773 H           1 HN4       0.2101
     47 H22        32.2858   68.2773    6.5858 H           1 HN4       0.0679
     48 H23        32.6758   66.8192    5.1844 H           1 HN4       0.2102
     49 H24        30.7046   68.1867    8.3320 H           1 HN4       0.0904
     50 H25        29.6097   66.0889    6.3686 H           1 HN4       0.0651
     51 H26        28.3747   67.8983    5.7065 H           1 HN4       0.2100
     52 H27        27.4212   66.4121    7.3636 H           1 HN4       0.0294
     53 H28        28.0278   67.6658    8.4306 H           1 HN4       0.0294
     54 H29        27.7814   65.5395    9.7054 H           1 HN4       0.0322
     55 H30        28.6992   64.6981    8.4628 H           1 HN4       0.0322
@<TRIPOS>BOND
     1     1     2   2
     2     2     3   1
     3     2    13   1
     4     3     4  ar
     5     3    12  ar
     6     4     5  ar
     7     5     6  ar
     8     6     7   1
     9     6    11  ar
    10     7     8   1
    11     7     9   1
    12     7    10   1
    13    11    12  ar
    14    13    14   1
    15    14    15   1
    16    14    25   1
    17    15    16   1
    18    15    21   1
    19    16    17   1
    20    17    18   1
    21    17    19   1
    22    19    20   1
    23    19    21   1
    24    21    22   1
    25    22    23   1
    26    22    24   1
    27    24    25   1
    28     4    26   1
    29     5    27   1
    30     8    28   1
    31     8    29   1
    32     8    30   1
    33     9    31   1
    34     9    32   1
    35     9    33   1
    36    10    34   1
    37    10    35   1
    38    10    36   1
    39    11    37   1
    40    12    38   1
    41    13    39   1
    42    13    40   1
    43    14    41   1
    44    15    42   1
    45    16    43   1
    46    16    44   1
    47    17    45   1
    48    18    46   1
    49    19    47   1
    50    20    48   1
    51    21    49   1
    52    22    50   1
    53    23    51   1
    54    24    52   1
    55    24    53   1
    56    25    54   1
    57    25    55   1
@<TRIPOS>SUBSTRUCTURE
     1  HN4      2

