@<TRIPOS>MOLECULE
3ejr_ligand_007
    55    57
SMALL
GAST_HUCK
****
This file was generated by PARSER (from files_GN.cpp)

@<TRIPOS>ATOM
      1 O10        25.5651   63.9709    8.5279 O.2         1 HN4      -0.3651
      2 C10        25.6178   64.8904    9.3368 C.2         1 HN4       0.1575
      3 C11        24.4280   65.5175    9.6983 C.ar        1 HN4       0.0598
      4 C12        23.5319   65.9944    8.7186 C.ar        1 HN4      -0.0155
      5 C13        22.3449   66.6502    9.0885 C.ar        1 HN4      -0.0354
      6 C14        21.9545   66.7909   10.4505 C.ar        1 HN4      -0.0449
      7 C17        20.6438   67.4691   10.8338 C.3         1 HN4      -0.0433
      8 C18        19.4882   67.1276    9.8276 C.3         1 HN4      -0.0831
      9 C19        20.0968   67.0566   12.2470 C.3         1 HN4      -0.0831
     10 C20        20.8776   69.0116   10.8401 C.3         1 HN4      -0.0831
     11 C15        22.8807   66.3241   11.4190 C.ar        1 HN4      -0.0354
     12 C16        24.0882   65.7079   11.0553 C.ar        1 HN4      -0.0155
     13 C9         26.9185   65.2983    9.8675 C.3         1 HN4       0.0697
     14 C5         27.3860   66.7253    9.3939 C.3         1 HN4      -0.0046
     15 N4         28.2878   66.7733    8.1953 N.4         1 HN4       0.2468
     16 C3         27.8182   66.2049    6.9081 C.3         1 HN4      -0.0017
     17 C2         29.0950   65.9941    6.0576 C.3         1 HN4       0.1259
     18 O2         29.0395   66.7091    4.8226 O.3         1 HN4      -0.3837
     19 C1         30.2608   66.4383    6.9737 C.3         1 HN4       0.1307
     20 O1         30.6222   67.7986    6.6986 O.3         1 HN4      -0.3833
     21 C8A        29.6657   66.2574    8.3885 C.3         1 HN4       0.0353
     22 C8         30.3983   66.9739    9.5594 C.3         1 HN4       0.1004
     23 O8         31.6399   66.3238    9.8298 O.3         1 HN4      -0.3861
     24 C7         29.5132   66.9770   10.8340 C.3         1 HN4      -0.0162
     25 C6         28.0953   67.5289   10.5286 C.3         1 HN4      -0.0050
     26 H1         23.7482   65.8908    7.7242 H           1 HN4       0.0743
     27 H2         21.7578   67.0140    8.3353 H           1 HN4       0.0855
     28 H3         18.5272   67.5155   10.1716 H           1 HN4       0.0140
     29 H4         19.3940   66.0472    9.7034 H           1 HN4       0.0140
     30 H5         19.6627   67.5724    8.8511 H           1 HN4       0.0140
     31 H6         20.7545   67.3918   13.0497 H           1 HN4       0.0140
     32 H7         19.9916   65.9716   12.3129 H           1 HN4       0.0140
     33 H8         19.1191   67.5016   12.4444 H           1 HN4       0.0140
     34 H9         21.2074   69.3636    9.8598 H           1 HN4       0.0140
     35 H10        21.6423   69.2808   11.5740 H           1 HN4       0.0140
     36 H11        19.9570   69.5417   11.0979 H           1 HN4       0.0140
     37 H12        22.6993   66.4244   12.4149 H           1 HN4       0.0855
     38 H13        24.6981   65.3676   11.8023 H           1 HN4       0.0743
     39 H14        27.6730   64.5629    9.5920 H           1 HN4       0.0545
     40 H15        26.8674   65.2603   10.9565 H           1 HN4       0.0545
     41 H16        26.5023   67.3160    9.1301 H           1 HN4       0.0877
     42 H17        28.3973   67.7737    8.0028 H           1 HN4       0.2043
     43 H18        27.1209   66.8994    6.4320 H           1 HN4       0.0841
     44 H19        27.3173   65.2428    7.0406 H           1 HN4       0.0841
     45 H20        29.2058   64.9304    5.8209 H           1 HN4       0.0675
     46 H21        29.9285   66.5966    4.4275 H           1 HN4       0.2101
     47 H22        31.1410   65.8003    6.8264 H           1 HN4       0.0679
     48 H23        31.3850   67.9843    7.2869 H           1 HN4       0.2102
     49 H24        29.6508   65.1839    8.6129 H           1 HN4       0.0904
     50 H25        30.6063   68.0113    9.2948 H           1 HN4       0.0651
     51 H26        31.8267   66.4951   10.7793 H           1 HN4       0.2100
     52 H27        29.9865   67.5988   11.6008 H           1 HN4       0.0294
     53 H28        29.4385   65.9602   11.2325 H           1 HN4       0.0294
     54 H29        27.4937   67.5212   11.4401 H           1 HN4       0.0322
     55 H30        28.1911   68.5738   10.2172 H           1 HN4       0.0322
@<TRIPOS>BOND
     1     1     2   2
     2     2     3   1
     3     2    13   1
     4     3     4  ar
     5     3    12  ar
     6     4     5  ar
     7     5     6  ar
     8     6     7   1
     9     6    11  ar
    10     7     8   1
    11     7     9   1
    12     7    10   1
    13    11    12  ar
    14    13    14   1
    15    14    15   1
    16    14    25   1
    17    15    16   1
    18    15    21   1
    19    16    17   1
    20    17    18   1
    21    17    19   1
    22    19    20   1
    23    19    21   1
    24    21    22   1
    25    22    23   1
    26    22    24   1
    27    24    25   1
    28     4    26   1
    29     5    27   1
    30     8    28   1
    31     8    29   1
    32     8    30   1
    33     9    31   1
    34     9    32   1
    35     9    33   1
    36    10    34   1
    37    10    35   1
    38    10    36   1
    39    11    37   1
    40    12    38   1
    41    13    39   1
    42    13    40   1
    43    14    41   1
    44    15    42   1
    45    16    43   1
    46    16    44   1
    47    17    45   1
    48    18    46   1
    49    19    47   1
    50    20    48   1
    51    21    49   1
    52    22    50   1
    53    23    51   1
    54    24    52   1
    55    24    53   1
    56    25    54   1
    57    25    55   1
@<TRIPOS>SUBSTRUCTURE
     1  HN4      2

