@<TRIPOS>MOLECULE
3ejr_ligand_065
    55    57
SMALL
GAST_HUCK
****
This file was generated by PARSER (from files_GN.cpp)

@<TRIPOS>ATOM
      1 O10        29.7510   66.2868   12.7080 O.2         1 HN4      -0.3651
      2 C10        29.2021   65.7086   11.7782 C.2         1 HN4       0.1575
      3 C11        29.6904   65.9326   10.4669 C.ar        1 HN4       0.0598
      4 C12        30.6672   66.9253   10.2252 C.ar        1 HN4      -0.0155
      5 C13        31.1426   67.2037    8.9234 C.ar        1 HN4      -0.0354
      6 C14        30.6693   66.5118    7.7819 C.ar        1 HN4      -0.0449
      7 C17        31.1832   66.7769    6.3686 C.3         1 HN4      -0.0433
      8 C18        32.2377   65.6823    6.0078 C.3         1 HN4      -0.0831
      9 C19        30.0212   66.7433    5.3117 C.3         1 HN4      -0.0831
     10 C20        31.8897   68.1645    6.1865 C.3         1 HN4      -0.0831
     11 C15        29.7075   65.4979    8.0373 C.ar        1 HN4      -0.0354
     12 C16        29.2197   65.2276    9.3291 C.ar        1 HN4      -0.0155
     13 C9         28.0624   64.8748   12.1755 C.3         1 HN4       0.0697
     14 C5         26.6869   65.6001   12.4597 C.3         1 HN4      -0.0046
     15 N4         25.8555   66.0910   11.3160 N.4         1 HN4       0.2468
     16 C3         25.3861   65.1370   10.2756 C.3         1 HN4      -0.0017
     17 C2         25.1313   65.9787    9.0018 C.3         1 HN4       0.1259
     18 O2         23.8335   65.7629    8.4446 O.3         1 HN4      -0.3837
     19 C1         25.3776   67.4499    9.4161 C.3         1 HN4       0.1307
     20 O1         24.1598   68.1187    9.7707 O.3         1 HN4      -0.3833
     21 C8A        26.3404   67.3036   10.6154 C.3         1 HN4       0.0353
     22 C8         26.4179   68.5080   11.5969 C.3         1 HN4       0.1004
     23 O8         27.0298   69.6182   10.9330 O.3         1 HN4      -0.3861
     24 C7         27.2096   68.1305   12.8850 C.3         1 HN4      -0.0162
     25 C6         26.7709   66.7688   13.4967 C.3         1 HN4      -0.0050
     26 H1         31.0424   67.4867   10.9948 H           1 HN4       0.0743
     27 H2         31.8570   67.9247    8.8403 H           1 HN4       0.0855
     28 H3         32.6804   65.8642    5.0276 H           1 HN4       0.0140
     29 H4         31.7778   64.6931    5.9883 H           1 HN4       0.0140
     30 H5         33.0478   65.6791    6.7421 H           1 HN4       0.0140
     31 H6         29.2506   67.4764    5.5672 H           1 HN4       0.0140
     32 H7         29.5505   65.7604    5.2503 H           1 HN4       0.0140
     33 H8         30.3891   66.9733    4.3134 H           1 HN4       0.0140
     34 H9         32.8188   68.2275    6.7514 H           1 HN4       0.0140
     35 H10        31.2316   68.9684    6.5023 H           1 HN4       0.0140
     36 H11        32.1427   68.3428    5.1308 H           1 HN4       0.0140
     37 H12        29.3417   64.9290    7.2700 H           1 HN4       0.0855
     38 H13        28.5241   64.4914    9.4220 H           1 HN4       0.0743
     39 H14        28.3409   64.3669   13.1049 H           1 HN4       0.0545
     40 H15        27.9144   64.0527   11.4746 H           1 HN4       0.0545
     41 H16        26.0707   64.8317   12.9359 H           1 HN4       0.0877
     42 H17        24.9872   66.3939   11.7658 H           1 HN4       0.2043
     43 H18        24.4643   64.6638   10.6244 H           1 HN4       0.0841
     44 H19        26.1183   64.3541   10.0640 H           1 HN4       0.0841
     45 H20        25.8679   65.7011    8.2404 H           1 HN4       0.0675
     46 H21        23.2008   65.9810    9.1618 H           1 HN4       0.2101
     47 H22        25.8576   68.0125    8.6086 H           1 HN4       0.0679
     48 H23        23.8855   68.6296    8.9760 H           1 HN4       0.2102
     49 H24        27.3405   67.1276   10.2215 H           1 HN4       0.0904
     50 H25        25.4106   68.7965   11.8984 H           1 HN4       0.0651
     51 H26        26.8889   70.3837   11.5252 H           1 HN4       0.2100
     52 H27        27.0531   68.9126   13.6327 H           1 HN4       0.0294
     53 H28        28.2860   68.0781   12.6677 H           1 HN4       0.0294
     54 H29        27.4546   66.5059   14.3077 H           1 HN4       0.0322
     55 H30        25.7750   66.9065   13.9372 H           1 HN4       0.0322
@<TRIPOS>BOND
     1     1     2   2
     2     2     3   1
     3     2    13   1
     4     3     4  ar
     5     3    12  ar
     6     4     5  ar
     7     5     6  ar
     8     6     7   1
     9     6    11  ar
    10     7     8   1
    11     7     9   1
    12     7    10   1
    13    11    12  ar
    14    13    14   1
    15    14    15   1
    16    14    25   1
    17    15    16   1
    18    15    21   1
    19    16    17   1
    20    17    18   1
    21    17    19   1
    22    19    20   1
    23    19    21   1
    24    21    22   1
    25    22    23   1
    26    22    24   1
    27    24    25   1
    28     4    26   1
    29     5    27   1
    30     8    28   1
    31     8    29   1
    32     8    30   1
    33     9    31   1
    34     9    32   1
    35     9    33   1
    36    10    34   1
    37    10    35   1
    38    10    36   1
    39    11    37   1
    40    12    38   1
    41    13    39   1
    42    13    40   1
    43    14    41   1
    44    15    42   1
    45    16    43   1
    46    16    44   1
    47    17    45   1
    48    18    46   1
    49    19    47   1
    50    20    48   1
    51    21    49   1
    52    22    50   1
    53    23    51   1
    54    24    52   1
    55    24    53   1
    56    25    54   1
    57    25    55   1
@<TRIPOS>SUBSTRUCTURE
     1  HN4      2

