@<TRIPOS>MOLECULE
3ejr_ligand_051
    55    57
SMALL
GAST_HUCK
****
This file was generated by PARSER (from files_GN.cpp)

@<TRIPOS>ATOM
      1 O10        27.7216   66.2047   12.6495 O.2         1 HN4      -0.3651
      2 C10        28.9035   66.5088   12.4643 C.2         1 HN4       0.1575
      3 C11        29.6163   66.7675   13.6224 C.ar        1 HN4       0.0598
      4 C12        30.2286   68.0167   13.8352 C.ar        1 HN4      -0.0155
      5 C13        30.8444   68.3041   15.0732 C.ar        1 HN4      -0.0354
      6 C14        30.9028   67.3587   16.1281 C.ar        1 HN4      -0.0449
      7 C17        31.5327   67.7253   17.4674 C.3         1 HN4      -0.0433
      8 C18        31.6147   66.5407   18.4942 C.3         1 HN4      -0.0831
      9 C19        33.0010   68.2274   17.2465 C.3         1 HN4      -0.0831
     10 C20        30.6868   68.8580   18.1384 C.3         1 HN4      -0.0831
     11 C15        30.3021   66.0957   15.8720 C.ar        1 HN4      -0.0354
     12 C16        29.6683   65.8065   14.6570 C.ar        1 HN4      -0.0155
     13 C9         29.5338   66.1015   11.2121 C.3         1 HN4       0.0697
     14 C5         29.3676   67.0983    9.9986 C.3         1 HN4      -0.0046
     15 N4         28.2147   66.8742    9.0545 N.4         1 HN4       0.2468
     16 C3         26.8153   66.9364    9.5492 C.3         1 HN4      -0.0017
     17 C2         25.9647   66.0767    8.5827 C.3         1 HN4       0.1259
     18 O2         24.8023   66.7636    8.1281 O.3         1 HN4      -0.3837
     19 C1         26.9422   65.6734    7.4597 C.3         1 HN4       0.1307
     20 O1         26.9265   66.6264    6.3923 O.3         1 HN4      -0.3833
     21 C8A        28.2974   65.6615    8.2015 C.3         1 HN4       0.0353
     22 C8         29.5694   65.6831    7.3094 C.3         1 HN4       0.1004
     23 O8         29.6616   64.4605    6.5815 O.3         1 HN4      -0.3861
     24 C7         30.8222   65.9047    8.1985 C.3         1 HN4      -0.0162
     25 C6         30.6515   67.1578    9.1012 C.3         1 HN4      -0.0050
     26 H1         30.2062   68.7400   13.1130 H           1 HN4       0.0743
     27 H2         31.2290   69.2412   15.1965 H           1 HN4       0.0855
     28 H3         32.1220   66.8447   19.4132 H           1 HN4       0.0140
     29 H4         32.1689   65.7012   18.0696 H           1 HN4       0.0140
     30 H5         30.6183   66.1902   18.7739 H           1 HN4       0.0140
     31 H6         33.0307   69.1462   16.6603 H           1 HN4       0.0140
     32 H7         33.5857   67.4695   16.7215 H           1 HN4       0.0140
     33 H8         33.4923   68.4398   18.1983 H           1 HN4       0.0140
     34 H9         29.6599   68.5230   18.3088 H           1 HN4       0.0140
     35 H10        30.6490   69.7545   17.5175 H           1 HN4       0.0140
     36 H11        31.1134   69.1438   19.1028 H           1 HN4       0.0140
     37 H12        30.2823   65.3685   16.5848 H           1 HN4       0.0855
     38 H13        29.2361   64.8860   14.5326 H           1 HN4       0.0743
     39 H14        29.1521   65.1181   10.9277 H           1 HN4       0.0545
     40 H15        30.6010   65.9431   11.4053 H           1 HN4       0.0545
     41 H16        29.2458   68.1047   10.4113 H           1 HN4       0.0877
     42 H17        28.2690   67.6663    8.4062 H           1 HN4       0.2043
     43 H18        26.4915   67.9804    9.5660 H           1 HN4       0.0841
     44 H19        26.7020   66.5285   10.5432 H           1 HN4       0.0841
     45 H20        25.6287   65.1710    9.1018 H           1 HN4       0.0675
     46 H21        25.1289   67.6207    7.7837 H           1 HN4       0.2101
     47 H22        26.7014   64.6837    7.0597 H           1 HN4       0.0679
     48 H23        26.0153   66.5883    6.0347 H           1 HN4       0.2102
     49 H24        28.3351   64.7607    8.8251 H           1 HN4       0.0904
     50 H25        29.5050   66.5013    6.5876 H           1 HN4       0.0651
     51 H26        30.5177   64.5028    6.1042 H           1 HN4       0.2100
     52 H27        31.6966   66.0396    7.5568 H           1 HN4       0.0294
     53 H28        30.9948   65.0236    8.8216 H           1 HN4       0.0294
     54 H29        31.5474   67.2911    9.7169 H           1 HN4       0.0322
     55 H30        30.5821   68.0341    8.4463 H           1 HN4       0.0322
@<TRIPOS>BOND
     1     1     2   2
     2     2     3   1
     3     2    13   1
     4     3     4  ar
     5     3    12  ar
     6     4     5  ar
     7     5     6  ar
     8     6     7   1
     9     6    11  ar
    10     7     8   1
    11     7     9   1
    12     7    10   1
    13    11    12  ar
    14    13    14   1
    15    14    15   1
    16    14    25   1
    17    15    16   1
    18    15    21   1
    19    16    17   1
    20    17    18   1
    21    17    19   1
    22    19    20   1
    23    19    21   1
    24    21    22   1
    25    22    23   1
    26    22    24   1
    27    24    25   1
    28     4    26   1
    29     5    27   1
    30     8    28   1
    31     8    29   1
    32     8    30   1
    33     9    31   1
    34     9    32   1
    35     9    33   1
    36    10    34   1
    37    10    35   1
    38    10    36   1
    39    11    37   1
    40    12    38   1
    41    13    39   1
    42    13    40   1
    43    14    41   1
    44    15    42   1
    45    16    43   1
    46    16    44   1
    47    17    45   1
    48    18    46   1
    49    19    47   1
    50    20    48   1
    51    21    49   1
    52    22    50   1
    53    23    51   1
    54    24    52   1
    55    24    53   1
    56    25    54   1
    57    25    55   1
@<TRIPOS>SUBSTRUCTURE
     1  HN4      2

