@<TRIPOS>MOLECULE
3ejr_ligand_012
    55    57
SMALL
GAST_HUCK
****
This file was generated by PARSER (from files_GN.cpp)

@<TRIPOS>ATOM
      1 O10        27.3751   66.2732   11.9395 O.2         1 HN4      -0.3651
      2 C10        26.9515   67.4054   11.7365 C.2         1 HN4       0.1575
      3 C11        27.7243   68.4667   12.1999 C.ar        1 HN4       0.0598
      4 C12        28.1240   69.5122   11.3411 C.ar        1 HN4      -0.0155
      5 C13        28.9081   70.5759   11.8239 C.ar        1 HN4      -0.0354
      6 C14        29.3422   70.6475   13.1743 C.ar        1 HN4      -0.0449
      7 C17        30.2105   71.8062   13.6448 C.3         1 HN4      -0.0433
      8 C18        30.6578   71.7232   15.1469 C.3         1 HN4      -0.0831
      9 C19        31.5219   71.8619   12.7864 C.3         1 HN4      -0.0831
     10 C20        29.4300   73.1559   13.4847 C.3         1 HN4      -0.0831
     11 C15        28.9232   69.5829   14.0202 C.ar        1 HN4      -0.0354
     12 C16        28.1439   68.5154   13.5491 C.ar        1 HN4      -0.0155
     13 C9         25.5194   67.5585   11.4751 C.3         1 HN4       0.0697
     14 C5         25.1135   68.0661   10.0459 C.3         1 HN4      -0.0046
     15 N4         23.6313   68.1689    9.7861 N.4         1 HN4       0.2468
     16 C3         22.7981   69.0192   10.6697 C.3         1 HN4      -0.0017
     17 C2         21.3326   68.5999   10.3910 C.3         1 HN4       0.1259
     18 O2         20.5708   69.6674    9.8226 O.3         1 HN4      -0.3837
     19 C1         21.4229   67.3439    9.4870 C.3         1 HN4       0.1307
     20 O1         21.0458   67.6403    8.1378 O.3         1 HN4      -0.3833
     21 C8A        22.8952   66.8871    9.6449 C.3         1 HN4       0.0353
     22 C8         23.4930   66.0442    8.4843 C.3         1 HN4       0.1004
     23 O8         22.8429   64.7770    8.4210 O.3         1 HN4      -0.3861
     24 C7         25.0233   65.8612    8.6669 C.3         1 HN4      -0.0162
     25 C6         25.7369   67.2250    8.8832 C.3         1 HN4      -0.0050
     26 H1         27.8720   69.4996   10.3499 H           1 HN4       0.0743
     27 H2         29.1859   71.2970   11.1548 H           1 HN4       0.0855
     28 H3         31.2824   72.5775   15.4250 H           1 HN4       0.0140
     29 H4         31.2400   70.8173   15.3249 H           1 HN4       0.0140
     30 H5         29.7887   71.7204   15.8081 H           1 HN4       0.0140
     31 H6         31.3099   72.0672   11.7357 H           1 HN4       0.0140
     32 H7         32.0555   70.9107   12.8449 H           1 HN4       0.0140
     33 H8         32.1918   72.6481   13.1401 H           1 HN4       0.0140
     34 H9         28.4937   73.1240   14.0480 H           1 HN4       0.0140
     35 H10        29.1894   73.3632   12.4397 H           1 HN4       0.0140
     36 H11        30.0194   73.9985   13.8542 H           1 HN4       0.0140
     37 H12        29.1824   69.5545   15.0059 H           1 HN4       0.0855
     38 H13        27.8771   67.7761   14.2074 H           1 HN4       0.0743
     39 H14        25.1252   68.2500   12.2219 H           1 HN4       0.0545
     40 H15        25.0185   66.6033   11.6571 H           1 HN4       0.0545
     41 H16        25.5051   69.0817    9.9461 H           1 HN4       0.0877
     42 H17        23.5553   68.6252    8.8730 H           1 HN4       0.2043
     43 H18        22.9699   70.0731   10.4387 H           1 HN4       0.0841
     44 H19        23.0142   68.8546   11.7261 H           1 HN4       0.0841
     45 H20        20.8461   68.3293   11.3335 H           1 HN4       0.0675
     46 H21        21.0910   69.9781    9.0519 H           1 HN4       0.2101
     47 H22        20.7486   66.5619    9.8475 H           1 HN4       0.0679
     48 H23        21.7028   68.2960    7.8215 H           1 HN4       0.2102
     49 H24        22.9712   66.3038   10.5694 H           1 HN4       0.0904
     50 H25        23.3177   66.5603    7.5385 H           1 HN4       0.0651
     51 H26        22.8695   64.5201    7.4751 H           1 HN4       0.2100
     52 H27        25.4385   65.3744    7.7797 H           1 HN4       0.0294
     53 H28        25.2159   65.2120    9.5224 H           1 HN4       0.0294
     54 H29        26.8012   67.0506    9.0542 H           1 HN4       0.0322
     55 H30        25.6587   67.7973    7.9541 H           1 HN4       0.0322
@<TRIPOS>BOND
     1     1     2   2
     2     2     3   1
     3     2    13   1
     4     3     4  ar
     5     3    12  ar
     6     4     5  ar
     7     5     6  ar
     8     6     7   1
     9     6    11  ar
    10     7     8   1
    11     7     9   1
    12     7    10   1
    13    11    12  ar
    14    13    14   1
    15    14    15   1
    16    14    25   1
    17    15    16   1
    18    15    21   1
    19    16    17   1
    20    17    18   1
    21    17    19   1
    22    19    20   1
    23    19    21   1
    24    21    22   1
    25    22    23   1
    26    22    24   1
    27    24    25   1
    28     4    26   1
    29     5    27   1
    30     8    28   1
    31     8    29   1
    32     8    30   1
    33     9    31   1
    34     9    32   1
    35     9    33   1
    36    10    34   1
    37    10    35   1
    38    10    36   1
    39    11    37   1
    40    12    38   1
    41    13    39   1
    42    13    40   1
    43    14    41   1
    44    15    42   1
    45    16    43   1
    46    16    44   1
    47    17    45   1
    48    18    46   1
    49    19    47   1
    50    20    48   1
    51    21    49   1
    52    22    50   1
    53    23    51   1
    54    24    52   1
    55    24    53   1
    56    25    54   1
    57    25    55   1
@<TRIPOS>SUBSTRUCTURE
     1  HN4      2

