@<TRIPOS>MOLECULE
3ejr_ligand_002
    55    57
SMALL
GAST_HUCK
****
This file was generated by PARSER (from files_GN.cpp)

@<TRIPOS>ATOM
      1 O10        26.5072   65.2348    9.6653 O.2         1 HN4      -0.3651
      2 C10        27.3230   66.1050    9.9608 C.2         1 HN4       0.1575
      3 C11        27.6445   66.2421   11.2974 C.ar        1 HN4       0.0598
      4 C12        28.6275   65.4185   11.8836 C.ar        1 HN4      -0.0155
      5 C13        28.9786   65.5835   13.2367 C.ar        1 HN4      -0.0354
      6 C14        28.3721   66.5729   14.0610 C.ar        1 HN4      -0.0449
      7 C17        28.7963   66.7229   15.5195 C.3         1 HN4      -0.0433
      8 C18        30.3497   66.5554   15.6645 C.3         1 HN4      -0.0831
      9 C19        28.4363   68.1090   16.1646 C.3         1 HN4      -0.0831
     10 C20        28.0732   65.6239   16.3662 C.3         1 HN4      -0.0831
     11 C15        27.3662   67.3729   13.4487 C.ar        1 HN4      -0.0354
     12 C16        27.0169   67.2232   12.0910 C.ar        1 HN4      -0.0155
     13 C9         28.1608   66.6690    8.9117 C.3         1 HN4       0.0697
     14 C5         29.0628   65.6014    8.1794 C.3         1 HN4      -0.0046
     15 N4         30.5468   65.7971    8.2580 N.4         1 HN4       0.2468
     16 C3         31.1982   65.8136    9.5877 C.3         1 HN4      -0.0017
     17 C2         32.5681   66.5000    9.3811 C.3         1 HN4       0.1259
     18 O2         33.6505   65.6213    9.6931 O.3         1 HN4      -0.3837
     19 C1         32.5787   66.9744    7.9087 C.3         1 HN4       0.1307
     20 O1         33.3817   66.1047    7.1069 O.3         1 HN4      -0.3833
     21 C8A        31.0857   66.9564    7.5076 C.3         1 HN4       0.0353
     22 C8         30.7706   66.8015    5.9943 C.3         1 HN4       0.1004
     23 O8         31.1877   67.9608    5.2787 O.3         1 HN4      -0.3861
     24 C7         29.2471   66.5814    5.7823 C.3         1 HN4      -0.0162
     25 C6         28.7018   65.4253    6.6691 C.3         1 HN4      -0.0050
     26 H1         29.1132   64.7078   11.3273 H           1 HN4       0.0743
     27 H2         29.7018   64.9640   13.6084 H           1 HN4       0.0855
     28 H3         30.6806   66.7694   16.6848 H           1 HN4       0.0140
     29 H4         30.8747   67.2325   14.9856 H           1 HN4       0.0140
     30 H5         30.6619   65.5347   15.4404 H           1 HN4       0.0140
     31 H6         27.3554   68.2586   16.2034 H           1 HN4       0.0140
     32 H7         28.8796   68.9270   15.5924 H           1 HN4       0.0140
     33 H8         28.8077   68.1796   17.1904 H           1 HN4       0.0140
     34 H9         28.3220   64.6219   16.0151 H           1 HN4       0.0140
     35 H10        26.9895   65.7416   16.3024 H           1 HN4       0.0140
     36 H11        28.3578   65.6862   17.4192 H           1 HN4       0.0140
     37 H12        26.8646   68.0874   13.9761 H           1 HN4       0.0855
     38 H13        26.2988   67.8337   11.6889 H           1 HN4       0.0743
     39 H14        28.7852   67.4646    9.3274 H           1 HN4       0.0545
     40 H15        27.4900   67.1657    8.2070 H           1 HN4       0.0545
     41 H16        28.8873   64.6231    8.6390 H           1 HN4       0.0877
     42 H17        30.9204   64.9662    7.7934 H           1 HN4       0.2043
     43 H18        31.3098   64.7894    9.9469 H           1 HN4       0.0841
     44 H19        30.6190   66.3776   10.3226 H           1 HN4       0.0841
     45 H20        32.6472   67.3695   10.0404 H           1 HN4       0.0675
     46 H21        33.5638   65.4359   10.6528 H           1 HN4       0.2101
     47 H22        32.9870   67.9865    7.8351 H           1 HN4       0.0679
     48 H23        33.8841   66.6946    6.5052 H           1 HN4       0.2102
     49 H24        30.6247   67.8852    7.8638 H           1 HN4       0.0904
     50 H25        31.3014   65.9353    5.5900 H           1 HN4       0.0651
     51 H26        32.1483   67.8489    5.1113 H           1 HN4       0.2100
     52 H27        29.0619   66.3434    4.7303 H           1 HN4       0.0294
     53 H28        28.7068   67.5026    6.0135 H           1 HN4       0.0294
     54 H29        27.6180   65.3426    6.5485 H           1 HN4       0.0322
     55 H30        29.1363   64.4853    6.3131 H           1 HN4       0.0322
@<TRIPOS>BOND
     1     1     2   2
     2     2     3   1
     3     2    13   1
     4     3     4  ar
     5     3    12  ar
     6     4     5  ar
     7     5     6  ar
     8     6     7   1
     9     6    11  ar
    10     7     8   1
    11     7     9   1
    12     7    10   1
    13    11    12  ar
    14    13    14   1
    15    14    15   1
    16    14    25   1
    17    15    16   1
    18    15    21   1
    19    16    17   1
    20    17    18   1
    21    17    19   1
    22    19    20   1
    23    19    21   1
    24    21    22   1
    25    22    23   1
    26    22    24   1
    27    24    25   1
    28     4    26   1
    29     5    27   1
    30     8    28   1
    31     8    29   1
    32     8    30   1
    33     9    31   1
    34     9    32   1
    35     9    33   1
    36    10    34   1
    37    10    35   1
    38    10    36   1
    39    11    37   1
    40    12    38   1
    41    13    39   1
    42    13    40   1
    43    14    41   1
    44    15    42   1
    45    16    43   1
    46    16    44   1
    47    17    45   1
    48    18    46   1
    49    19    47   1
    50    20    48   1
    51    21    49   1
    52    22    50   1
    53    23    51   1
    54    24    52   1
    55    24    53   1
    56    25    54   1
    57    25    55   1
@<TRIPOS>SUBSTRUCTURE
     1  HN4      2

