@<TRIPOS>MOLECULE
3ejr_ligand_070
    55    57
SMALL
GAST_HUCK
****
This file was generated by PARSER (from files_GN.cpp)

@<TRIPOS>ATOM
      1 O10        27.4778   69.9768   11.0691 O.2         1 HN4      -0.3651
      2 C10        27.9828   68.9901   11.5808 C.2         1 HN4       0.1575
      3 C11        29.1136   69.1704   12.4263 C.ar        1 HN4       0.0598
      4 C12        29.6017   68.1671   13.2984 C.ar        1 HN4      -0.0155
      5 C13        30.7326   68.3724   14.1186 C.ar        1 HN4      -0.0354
      6 C14        31.4367   69.6007   14.1455 C.ar        1 HN4      -0.0449
      7 C17        32.6915   69.7910   14.9943 C.3         1 HN4      -0.0433
      8 C18        33.9076   69.2493   14.1755 C.3         1 HN4      -0.0831
      9 C19        32.9743   71.2932   15.3579 C.3         1 HN4      -0.0831
     10 C20        32.6252   69.0229   16.3635 C.3         1 HN4      -0.0831
     11 C15        30.9651   70.5968   13.2491 C.ar        1 HN4      -0.0354
     12 C16        29.8429   70.3905   12.4219 C.ar        1 HN4      -0.0155
     13 C9         27.2271   67.7348   11.4278 C.3         1 HN4       0.0697
     14 C5         26.4004   67.5005   10.0968 C.3         1 HN4      -0.0046
     15 N4         24.9159   67.7220   10.1807 N.4         1 HN4       0.2468
     16 C3         24.4022   69.0542   10.5855 C.3         1 HN4      -0.0017
     17 C2         22.9745   68.8076   11.1398 C.3         1 HN4       0.1259
     18 O2         21.9832   69.6334   10.5286 O.3         1 HN4      -0.3837
     19 C1         22.7197   67.2957   10.9461 C.3         1 HN4       0.1307
     20 O1         22.0241   67.0278    9.7237 O.3         1 HN4      -0.3833
     21 C8A        24.1521   66.7174   10.9647 C.3         1 HN4       0.0353
     22 C8         24.3361   65.2921   10.3734 C.3         1 HN4       0.1004
     23 O8         23.6857   64.3321   11.2046 O.3         1 HN4      -0.3861
     24 C7         25.8494   64.9645   10.2611 C.3         1 HN4      -0.0162
     25 C6         26.6139   66.0731    9.4858 C.3         1 HN4      -0.0050
     26 H1         29.1638   67.2486   13.3504 H           1 HN4       0.0743
     27 H2         31.0381   67.5847   14.6911 H           1 HN4       0.0855
     28 H3         34.8360   69.3535   14.7407 H           1 HN4       0.0140
     29 H4         34.0178   69.7968   13.2366 H           1 HN4       0.0140
     30 H5         33.7746   68.1907   13.9362 H           1 HN4       0.0140
     31 H6         32.0943   71.7435   15.8253 H           1 HN4       0.0140
     32 H7         33.2394   71.8814   14.4790 H           1 HN4       0.0140
     33 H8         33.8112   71.3879   16.0537 H           1 HN4       0.0140
     34 H9         32.7010   67.9426   16.2280 H           1 HN4       0.0140
     35 H10        31.6885   69.2417   16.8791 H           1 HN4       0.0140
     36 H11        33.4476   69.3060   17.0293 H           1 HN4       0.0140
     37 H12        31.4393   71.4955   13.1705 H           1 HN4       0.0855
     38 H13        29.5677   71.1610   11.8069 H           1 HN4       0.0743
     39 H14        26.5632   67.6701   12.2904 H           1 HN4       0.0545
     40 H15        27.9257   66.9078   11.5197 H           1 HN4       0.0545
     41 H16        26.7647   68.1896    9.3308 H           1 HN4       0.0877
     42 H17        24.5883   67.6045    9.2178 H           1 HN4       0.2043
     43 H18        24.3824   69.7103    9.7114 H           1 HN4       0.0841
     44 H19        25.0232   69.5202   11.3538 H           1 HN4       0.0841
     45 H20        22.9620   69.0293   12.2113 H           1 HN4       0.0675
     46 H21        22.1159   69.5371    9.5627 H           1 HN4       0.2101
     47 H22        22.1257   66.8887   11.7689 H           1 HN4       0.0679
     48 H23        22.5861   67.3888    9.0068 H           1 HN4       0.2102
     49 H24        24.4995   66.7008   12.0045 H           1 HN4       0.0904
     50 H25        23.8899   65.2388    9.3767 H           1 HN4       0.0651
     51 H26        23.7712   63.4782   10.7293 H           1 HN4       0.2100
     52 H27        25.9750   64.0097    9.7451 H           1 HN4       0.0294
     53 H28        26.2751   64.8594   11.2625 H           1 HN4       0.0294
     54 H29        27.6794   65.8289    9.4587 H           1 HN4       0.0322
     55 H30        26.2602   66.0691    8.4494 H           1 HN4       0.0322
@<TRIPOS>BOND
     1     1     2   2
     2     2     3   1
     3     2    13   1
     4     3     4  ar
     5     3    12  ar
     6     4     5  ar
     7     5     6  ar
     8     6     7   1
     9     6    11  ar
    10     7     8   1
    11     7     9   1
    12     7    10   1
    13    11    12  ar
    14    13    14   1
    15    14    15   1
    16    14    25   1
    17    15    16   1
    18    15    21   1
    19    16    17   1
    20    17    18   1
    21    17    19   1
    22    19    20   1
    23    19    21   1
    24    21    22   1
    25    22    23   1
    26    22    24   1
    27    24    25   1
    28     4    26   1
    29     5    27   1
    30     8    28   1
    31     8    29   1
    32     8    30   1
    33     9    31   1
    34     9    32   1
    35     9    33   1
    36    10    34   1
    37    10    35   1
    38    10    36   1
    39    11    37   1
    40    12    38   1
    41    13    39   1
    42    13    40   1
    43    14    41   1
    44    15    42   1
    45    16    43   1
    46    16    44   1
    47    17    45   1
    48    18    46   1
    49    19    47   1
    50    20    48   1
    51    21    49   1
    52    22    50   1
    53    23    51   1
    54    24    52   1
    55    24    53   1
    56    25    54   1
    57    25    55   1
@<TRIPOS>SUBSTRUCTURE
     1  HN4      2

