@<TRIPOS>MOLECULE
3ejr_ligand_010
    55    57
SMALL
GAST_HUCK
****
This file was generated by PARSER (from files_GN.cpp)

@<TRIPOS>ATOM
      1 O10        25.4828   65.7581    7.7286 O.2         1 HN4      -0.3651
      2 C10        26.1754   65.4566    8.7003 C.2         1 HN4       0.1575
      3 C11        25.5360   65.0607    9.8548 C.ar        1 HN4       0.0598
      4 C12        25.1407   63.7200   10.0497 C.ar        1 HN4      -0.0155
      5 C13        24.5283   63.3263   11.2529 C.ar        1 HN4      -0.0354
      6 C14        24.2592   64.2463   12.3004 C.ar        1 HN4      -0.0449
      7 C17        23.6294   63.8478   13.6310 C.3         1 HN4      -0.0433
      8 C18        24.4855   64.3884   14.8272 C.3         1 HN4      -0.0831
      9 C19        22.1880   64.4502   13.7059 C.3         1 HN4      -0.0831
     10 C20        23.5020   62.2976   13.8569 C.3         1 HN4      -0.0831
     11 C15        24.6104   65.5995   12.0481 C.ar        1 HN4      -0.0354
     12 C16        25.2354   66.0018   10.8548 C.ar        1 HN4      -0.0155
     13 C9         27.6265   65.4580    8.5600 C.3         1 HN4       0.0697
     14 C5         28.2715   66.8933    8.6259 C.3         1 HN4      -0.0046
     15 N4         29.4783   67.1337    7.7659 N.4         1 HN4       0.2468
     16 C3         29.3374   67.0852    6.2901 C.3         1 HN4      -0.0017
     17 C2         30.7566   66.7990    5.7381 C.3         1 HN4       0.1259
     18 O2         31.1665   67.7960    4.8023 O.3         1 HN4      -0.3837
     19 C1         31.6684   66.6935    6.9819 C.3         1 HN4       0.1307
     20 O1         32.3603   67.9252    7.2109 O.3         1 HN4      -0.3833
     21 C8A        30.6778   66.3374    8.1169 C.3         1 HN4       0.0353
     22 C8         31.1447   66.6590    9.5671 C.3         1 HN4       0.1004
     23 O8         32.1922   65.7668    9.9486 O.3         1 HN4      -0.3861
     24 C7         29.9659   66.5714   10.5765 C.3         1 HN4      -0.0162
     25 C6         28.6864   67.3010   10.0768 C.3         1 HN4      -0.0050
     26 H1         25.3116   63.0276    9.3198 H           1 HN4       0.0743
     27 H2         24.2757   62.3455   11.3287 H           1 HN4       0.0855
     28 H3         24.0736   64.0672   15.7885 H           1 HN4       0.0140
     29 H4         24.5006   65.4759   14.8612 H           1 HN4       0.0140
     30 H5         25.5176   64.0332   14.7531 H           1 HN4       0.0140
     31 H6         21.5722   64.0803   12.8783 H           1 HN4       0.0140
     32 H7         22.2030   65.5443   13.6545 H           1 HN4       0.0140
     33 H8         21.6973   64.1724   14.6449 H           1 HN4       0.0140
     34 H9         24.4825   61.8192   13.7853 H           1 HN4       0.0140
     35 H10        22.8340   61.8483   13.1265 H           1 HN4       0.0140
     36 H11        23.0793   62.0689   14.8415 H           1 HN4       0.0140
     37 H12        24.4239   66.3183   12.7417 H           1 HN4       0.0855
     38 H13        25.4787   66.9872   10.7356 H           1 HN4       0.0743
     39 H14        27.8707   64.9808    7.6113 H           1 HN4       0.0545
     40 H15        28.0725   64.8177    9.3251 H           1 HN4       0.0545
     41 H16        27.5190   67.6193    8.2970 H           1 HN4       0.0877
     42 H17        29.7360   68.1051    7.9686 H           1 HN4       0.2043
     43 H18        28.9514   68.0474    5.9462 H           1 HN4       0.0841
     44 H19        28.6476   66.3083    5.9574 H           1 HN4       0.0841
     45 H20        30.7473   65.8329    5.2277 H           1 HN4       0.0675
     46 H21        32.1419   67.7105    4.7356 H           1 HN4       0.2101
     47 H22        32.4131   65.9042    6.8640 H           1 HN4       0.0679
     48 H23        33.0959   67.9445    6.5568 H           1 HN4       0.2102
     49 H24        30.4435   65.2657    8.0591 H           1 HN4       0.0904
     50 H25        31.5516   67.6715    9.6087 H           1 HN4       0.0651
     51 H26        32.2363   65.8293   10.9279 H           1 HN4       0.2100
     52 H27        30.2744   67.0133   11.5276 H           1 HN4       0.0294
     53 H28        29.7355   65.5221   10.7750 H           1 HN4       0.0294
     54 H29        27.8685   67.1147   10.7744 H           1 HN4       0.0322
     55 H30        28.8758   68.3801   10.0943 H           1 HN4       0.0322
@<TRIPOS>BOND
     1     1     2   2
     2     2     3   1
     3     2    13   1
     4     3     4  ar
     5     3    12  ar
     6     4     5  ar
     7     5     6  ar
     8     6     7   1
     9     6    11  ar
    10     7     8   1
    11     7     9   1
    12     7    10   1
    13    11    12  ar
    14    13    14   1
    15    14    15   1
    16    14    25   1
    17    15    16   1
    18    15    21   1
    19    16    17   1
    20    17    18   1
    21    17    19   1
    22    19    20   1
    23    19    21   1
    24    21    22   1
    25    22    23   1
    26    22    24   1
    27    24    25   1
    28     4    26   1
    29     5    27   1
    30     8    28   1
    31     8    29   1
    32     8    30   1
    33     9    31   1
    34     9    32   1
    35     9    33   1
    36    10    34   1
    37    10    35   1
    38    10    36   1
    39    11    37   1
    40    12    38   1
    41    13    39   1
    42    13    40   1
    43    14    41   1
    44    15    42   1
    45    16    43   1
    46    16    44   1
    47    17    45   1
    48    18    46   1
    49    19    47   1
    50    20    48   1
    51    21    49   1
    52    22    50   1
    53    23    51   1
    54    24    52   1
    55    24    53   1
    56    25    54   1
    57    25    55   1
@<TRIPOS>SUBSTRUCTURE
     1  HN4      2

