@<TRIPOS>MOLECULE
3ejr_ligand_036
    55    57
SMALL
GAST_HUCK
****
This file was generated by PARSER (from files_GN.cpp)

@<TRIPOS>ATOM
      1 O10        24.5565   68.5010   10.5713 O.2         1 HN4      -0.3651
      2 C10        25.7076   68.2182   10.8900 C.2         1 HN4       0.1575
      3 C11        26.6482   67.9614    9.8835 C.ar        1 HN4       0.0598
      4 C12        26.2470   67.4387    8.6361 C.ar        1 HN4      -0.0155
      5 C13        27.1947   66.9856    7.7000 C.ar        1 HN4      -0.0354
      6 C14        28.5934   67.0673    7.9443 C.ar        1 HN4      -0.0449
      7 C17        29.5908   66.5059    6.9390 C.3         1 HN4      -0.0433
      8 C18        29.1815   66.9180    5.4872 C.3         1 HN4      -0.0831
      9 C19        31.0686   66.9908    7.1434 C.3         1 HN4      -0.0831
     10 C20        29.5932   64.9479    7.0543 C.3         1 HN4      -0.0831
     11 C15        28.9790   67.6644    9.1719 C.ar        1 HN4      -0.0354
     12 C16        28.0363   68.1039   10.1157 C.ar        1 HN4      -0.0155
     13 C9         25.9155   67.7804   12.2683 C.3         1 HN4       0.0697
     14 C5         25.4198   66.3294   12.6455 C.3         1 HN4      -0.0046
     15 N4         26.1920   65.6706   13.7573 N.4         1 HN4       0.2468
     16 C3         26.3295   66.3782   15.0492 C.3         1 HN4      -0.0017
     17 C2         27.4706   65.6465   15.8007 C.3         1 HN4       0.1259
     18 O2         26.9727   64.9594   16.9489 O.3         1 HN4      -0.3837
     19 C1         28.1205   64.7051   14.7544 C.3         1 HN4       0.1307
     20 O1         27.7964   63.3345   14.9918 O.3         1 HN4      -0.3833
     21 C8A        27.5514   65.1952   13.4049 C.3         1 HN4       0.0353
     22 C8         27.4974   64.1429   12.2552 C.3         1 HN4       0.1004
     23 O8         28.8138   63.7982   11.8274 O.3         1 HN4      -0.3861
     24 C7         26.6981   64.7076   11.0512 C.3         1 HN4      -0.0162
     25 C6         25.3227   65.2751   11.4905 C.3         1 HN4      -0.0050
     26 H1         25.2525   67.3153    8.4154 H           1 HN4       0.0743
     27 H2         26.8402   66.5540    6.8443 H           1 HN4       0.0855
     28 H3         29.9504   66.6438    4.7609 H           1 HN4       0.0140
     29 H4         29.0250   67.9958    5.4318 H           1 HN4       0.0140
     30 H5         28.2568   66.4307    5.1774 H           1 HN4       0.0140
     31 H6         31.4680   66.6353    8.0971 H           1 HN4       0.0140
     32 H7         31.1207   68.0833    7.1321 H           1 HN4       0.0140
     33 H8         31.7275   66.6188    6.3566 H           1 HN4       0.0140
     34 H9         28.6068   64.5299    6.8405 H           1 HN4       0.0140
     35 H10        29.8764   64.6458    8.0662 H           1 HN4       0.0140
     36 H11        30.3008   64.4991    6.3550 H           1 HN4       0.0140
     37 H12        29.9628   67.7569    9.4255 H           1 HN4       0.0855
     38 H13        28.3836   68.5242   10.9821 H           1 HN4       0.0743
     39 H14        25.4041   68.4959   12.9183 H           1 HN4       0.0545
     40 H15        26.9665   67.8710   12.5239 H           1 HN4       0.0545
     41 H16        24.3939   66.4509   13.0099 H           1 HN4       0.0877
     42 H17        25.6632   64.8237   13.9755 H           1 HN4       0.2043
     43 H18        25.3860   66.3335   15.5993 H           1 HN4       0.0841
     44 H19        26.6004   67.4273   14.9116 H           1 HN4       0.0841
     45 H20        28.2060   66.3810   16.1472 H           1 HN4       0.0675
     46 H21        27.7487   64.4999   17.3358 H           1 HN4       0.2101
     47 H22        29.2082   64.8065   14.7671 H           1 HN4       0.0679
     48 H23        28.0763   63.1574   15.9184 H           1 HN4       0.2102
     49 H24        28.1810   66.0281   13.0636 H           1 HN4       0.0904
     50 H25        26.9971   63.2346   12.5983 H           1 HN4       0.0651
     51 H26        29.2260   63.3388   12.5938 H           1 HN4       0.2100
     52 H27        26.5386   63.9079   10.3222 H           1 HN4       0.0294
     53 H28        27.2796   65.4986   10.5655 H           1 HN4       0.0294
     54 H29        24.8053   65.6922   10.6264 H           1 HN4       0.0322
     55 H30        24.7112   64.4423   11.8417 H           1 HN4       0.0322
@<TRIPOS>BOND
     1     1     2   2
     2     2     3   1
     3     2    13   1
     4     3     4  ar
     5     3    12  ar
     6     4     5  ar
     7     5     6  ar
     8     6     7   1
     9     6    11  ar
    10     7     8   1
    11     7     9   1
    12     7    10   1
    13    11    12  ar
    14    13    14   1
    15    14    15   1
    16    14    25   1
    17    15    16   1
    18    15    21   1
    19    16    17   1
    20    17    18   1
    21    17    19   1
    22    19    20   1
    23    19    21   1
    24    21    22   1
    25    22    23   1
    26    22    24   1
    27    24    25   1
    28     4    26   1
    29     5    27   1
    30     8    28   1
    31     8    29   1
    32     8    30   1
    33     9    31   1
    34     9    32   1
    35     9    33   1
    36    10    34   1
    37    10    35   1
    38    10    36   1
    39    11    37   1
    40    12    38   1
    41    13    39   1
    42    13    40   1
    43    14    41   1
    44    15    42   1
    45    16    43   1
    46    16    44   1
    47    17    45   1
    48    18    46   1
    49    19    47   1
    50    20    48   1
    51    21    49   1
    52    22    50   1
    53    23    51   1
    54    24    52   1
    55    24    53   1
    56    25    54   1
    57    25    55   1
@<TRIPOS>SUBSTRUCTURE
     1  HN4      2

