@<TRIPOS>MOLECULE
3f17_ligand_023
    33    34
SMALL
GAST_HUCK
****
This file was generated by PARSER (from files_GN.cpp)

@<TRIPOS>ATOM
      1 O4         10.1613   -8.4742    8.6602 O.2         1 HS4      -0.1501
      2 S1          8.9313   -9.2898    9.2518 S.o2        1 HS4       0.0703
      3 O3          8.9509  -10.6354    8.4046 O.2         1 HS4      -0.1501
      4 N1          9.2423   -9.7584   10.8416 N.am        1 HS4      -0.2276
      5 C12         9.8128   -8.8787   11.8047 C.3         1 HS4       0.1298
      6 C14        11.2086   -8.6041   11.5284 C.2         1 HS4       0.3057
      7 O1         11.5490   -7.4833   11.1716 O.2         1 HS4      -0.3264
      8 N2         12.1016   -9.5653   11.6767 N.2         1 HS4       0.0367
      9 O2         13.2829   -9.4401   11.4869 O.2         1 HS4      -0.1732
     10 C13         7.4099   -8.5018    8.9384 C.ar        1 HS4       0.1083
     11 C10         6.4450   -8.3569    9.9548 C.ar        1 HS4      -0.0345
     12 C5          5.2374   -7.6830    9.6969 C.ar        1 HS4      -0.0522
     13 C11         7.1374   -7.9846    7.6574 C.ar        1 HS4      -0.0345
     14 C8          5.9183   -7.3351    7.3950 C.ar        1 HS4      -0.0522
     15 C2          4.9464   -7.1562    8.4125 C.ar        1 HS4      -0.0178
     16 C1          3.7285   -6.4419    8.1629 C.ar        1 HS4      -0.0179
     17 C4          2.5294   -6.7558    8.8554 C.ar        1 HS4      -0.0540
     18 C7          1.3483   -6.0224    8.6349 C.ar        1 HS4      -0.0612
     19 C9          1.3370   -4.9645    7.7109 C.ar        1 HS4      -0.0617
     20 C6          2.5087   -4.6387    7.0077 C.ar        1 HS4      -0.0612
     21 C3          3.6895   -5.3701    7.2332 C.ar        1 HS4      -0.0540
     22 H1          9.1856  -10.7046   11.0509 H           1 HS4       0.1703
     23 H2          9.7327   -9.3526   12.7841 H           1 HS4       0.0728
     24 H3          9.2302   -7.9530   11.8439 H           1 HS4       0.0728
     25 H4          6.6166   -8.7238   10.8934 H           1 HS4       0.0637
     26 H5          4.5788   -7.5656   10.4714 H           1 HS4       0.0624
     27 H6          7.8234   -8.0775    6.9050 H           1 HS4       0.0637
     28 H7          5.7515   -6.9940    6.4440 H           1 HS4       0.0624
     29 H8          2.4992   -7.5293    9.5250 H           1 HS4       0.0624
     30 H9          0.4996   -6.2522    9.1559 H           1 HS4       0.0618
     31 H10         0.4801   -4.4279    7.5562 H           1 HS4       0.0618
     32 H11         2.5064   -3.8641    6.3390 H           1 HS4       0.0618
     33 H12         4.5323   -5.0926    6.7247 H           1 HS4       0.0624
@<TRIPOS>BOND
     1     1     2   2
     2     2     3   2
     3     2     4  am
     4     2    10   1
     5     4     5   1
     6     5     6   1
     7     6     7   2
     8     6     8   1
     9     8     9   2
    10    10    11  ar
    11    10    13  ar
    12    11    12  ar
    13    12    15  ar
    14    13    14  ar
    15    14    15  ar
    16    15    16   1
    17    16    17  ar
    18    16    21  ar
    19    17    18  ar
    20    18    19  ar
    21    19    20  ar
    22    20    21  ar
    23     4    22   1
    24     5    23   1
    25     5    24   1
    26    11    25   1
    27    12    26   1
    28    13    27   1
    29    14    28   1
    30    17    29   1
    31    18    30   1
    32    19    31   1
    33    20    32   1
    34    21    33   1
@<TRIPOS>SUBSTRUCTURE
     1  HS4      5

