@<TRIPOS>MOLECULE
3f17_ligand_012
    33    34
SMALL
GAST_HUCK
****
This file was generated by PARSER (from files_GN.cpp)

@<TRIPOS>ATOM
      1 O4          8.5030   -8.1154    7.0930 O.2         1 HS4      -0.1501
      2 S1          7.3155   -7.8480    8.1193 S.o2        1 HS4       0.0703
      3 O3          7.1253   -9.2443    8.8600 O.2         1 HS4      -0.1501
      4 N1          7.8621   -6.6587    9.1817 N.am        1 HS4      -0.2276
      5 C12         7.4319   -6.5329   10.5329 C.3         1 HS4       0.1298
      6 C14         6.0488   -6.8960   10.7611 C.2         1 HS4       0.3057
      7 O1          5.1645   -6.1845   10.2993 O.2         1 HS4      -0.3264
      8 N2          5.7623   -8.0054   11.4150 N.2         1 HS4       0.0367
      9 O2          4.6497   -8.4002   11.6441 O.2         1 HS4      -0.1732
     10 C13         5.8801   -7.3001    7.2964 C.ar        1 HS4       0.1083
     11 C10         5.9597   -6.3582    6.2514 C.ar        1 HS4      -0.0345
     12 C5          4.7908   -5.8439    5.6661 C.ar        1 HS4      -0.0522
     13 C11         4.6127   -7.7164    7.7504 C.ar        1 HS4      -0.0345
     14 C8          3.4424   -7.2019    7.1692 C.ar        1 HS4      -0.0522
     15 C2          3.5141   -6.2597    6.1146 C.ar        1 HS4      -0.0178
     16 C1          2.3335   -5.7456    5.5249 C.ar        1 HS4      -0.0179
     17 C4          2.0585   -4.3542    5.5396 C.ar        1 HS4      -0.0540
     18 C7          0.8889   -3.8472    4.9427 C.ar        1 HS4      -0.0612
     19 C9         -0.0100   -4.7204    4.3008 C.ar        1 HS4      -0.0617
     20 C6          0.2549   -6.0999    4.2727 C.ar        1 HS4      -0.0612
     21 C3          1.4116   -6.6096    4.8864 C.ar        1 HS4      -0.0540
     22 H1          8.6591   -6.1688    8.9219 H           1 HS4       0.1703
     23 H2          7.5591   -5.4885   10.8256 H           1 HS4       0.0728
     24 H3          8.1064   -7.1294   11.1515 H           1 HS4       0.0728
     25 H4          6.8667   -6.0210    5.9267 H           1 HS4       0.0637
     26 H5          4.8717   -5.1600    4.9055 H           1 HS4       0.0624
     27 H6          4.5302   -8.3787    8.5230 H           1 HS4       0.0637
     28 H7          2.5341   -7.4997    7.5368 H           1 HS4       0.0624
     29 H8          2.6989   -3.7030    6.0052 H           1 HS4       0.0624
     30 H9          0.6915   -2.8445    4.9690 H           1 HS4       0.0618
     31 H10        -0.8559   -4.3524    3.8641 H           1 HS4       0.0618
     32 H11        -0.3980   -6.7358    3.8030 H           1 HS4       0.0618
     33 H12         1.5899   -7.6208    4.8544 H           1 HS4       0.0624
@<TRIPOS>BOND
     1     1     2   2
     2     2     3   2
     3     2     4  am
     4     2    10   1
     5     4     5   1
     6     5     6   1
     7     6     7   2
     8     6     8   1
     9     8     9   2
    10    10    11  ar
    11    10    13  ar
    12    11    12  ar
    13    12    15  ar
    14    13    14  ar
    15    14    15  ar
    16    15    16   1
    17    16    17  ar
    18    16    21  ar
    19    17    18  ar
    20    18    19  ar
    21    19    20  ar
    22    20    21  ar
    23     4    22   1
    24     5    23   1
    25     5    24   1
    26    11    25   1
    27    12    26   1
    28    13    27   1
    29    14    28   1
    30    17    29   1
    31    18    30   1
    32    19    31   1
    33    20    32   1
    34    21    33   1
@<TRIPOS>SUBSTRUCTURE
     1  HS4      5

