@<TRIPOS>MOLECULE
3f17_ligand_019
    33    34
SMALL
GAST_HUCK
****
This file was generated by PARSER (from files_GN.cpp)

@<TRIPOS>ATOM
      1 O4          2.5372   -1.9484    4.0607 O.2         1 HS4      -0.1501
      2 S1          1.3543   -2.9577    3.7333 S.o2        1 HS4       0.0703
      3 O3          1.8275   -3.9744    2.6061 O.2         1 HS4      -0.1501
      4 N1          0.9841   -3.8376    5.1233 N.am        1 HS4      -0.2276
      5 C12         1.8876   -4.8075    5.6540 C.3         1 HS4       0.1298
      6 C14         1.2261   -5.7009    6.5768 C.2         1 HS4       0.3057
      7 O1          0.1830   -6.2471    6.2346 O.2         1 HS4      -0.3264
      8 N2          1.8047   -5.9869    7.7258 N.2         1 HS4       0.0367
      9 O2          1.3543   -6.7412    8.5460 O.2         1 HS4      -0.1732
     10 C13        -0.0474   -2.1657    3.0684 C.ar        1 HS4       0.1083
     11 C10        -1.2934   -2.8224    3.0557 C.ar        1 HS4      -0.0345
     12 C5         -2.4161   -2.2003    2.4773 C.ar        1 HS4      -0.0522
     13 C11         0.0554   -0.8777    2.5096 C.ar        1 HS4      -0.0345
     14 C8         -1.0758   -0.2541    1.9534 C.ar        1 HS4      -0.0522
     15 C2         -2.3386   -0.9002    1.9135 C.ar        1 HS4      -0.0178
     16 C1         -3.4863   -0.2731    1.3111 C.ar        1 HS4      -0.0179
     17 C4         -4.7980   -0.4868    1.8163 C.ar        1 HS4      -0.0540
     18 C7         -5.9227    0.1081    1.2141 C.ar        1 HS4      -0.0612
     19 C9         -5.7626    0.9546    0.1046 C.ar        1 HS4      -0.0617
     20 C6         -4.4770    1.1913   -0.4113 C.ar        1 HS4      -0.0612
     21 C3         -3.3565    0.5753    0.1778 C.ar        1 HS4      -0.0540
     22 H1          0.3357   -3.4444    5.7323 H           1 HS4       0.1703
     23 H2          2.7138   -4.2773    6.1401 H           1 HS4       0.0728
     24 H3          2.3002   -5.4201    4.8496 H           1 HS4       0.0728
     25 H4         -1.3959   -3.7587    3.4588 H           1 HS4       0.0637
     26 H5         -3.2921   -2.7278    2.4544 H           1 HS4       0.0624
     27 H6          0.9495   -0.3806    2.5037 H           1 HS4       0.0637
     28 H7         -0.9585    0.6905    1.5809 H           1 HS4       0.0624
     29 H8         -4.9592   -1.0706    2.6406 H           1 HS4       0.0624
     30 H9         -6.8580   -0.0689    1.5930 H           1 HS4       0.0618
     31 H10        -6.5792    1.4012   -0.3231 H           1 HS4       0.0618
     32 H11        -4.3541    1.8103   -1.2184 H           1 HS4       0.0618
     33 H12        -2.4440    0.7492   -0.2510 H           1 HS4       0.0624
@<TRIPOS>BOND
     1     1     2   2
     2     2     3   2
     3     2     4  am
     4     2    10   1
     5     4     5   1
     6     5     6   1
     7     6     7   2
     8     6     8   1
     9     8     9   2
    10    10    11  ar
    11    10    13  ar
    12    11    12  ar
    13    12    15  ar
    14    13    14  ar
    15    14    15  ar
    16    15    16   1
    17    16    17  ar
    18    16    21  ar
    19    17    18  ar
    20    18    19  ar
    21    19    20  ar
    22    20    21  ar
    23     4    22   1
    24     5    23   1
    25     5    24   1
    26    11    25   1
    27    12    26   1
    28    13    27   1
    29    14    28   1
    30    17    29   1
    31    18    30   1
    32    19    31   1
    33    20    32   1
    34    21    33   1
@<TRIPOS>SUBSTRUCTURE
     1  HS4      5

