@<TRIPOS>MOLECULE
3f17_ligand_027
    33    34
SMALL
GAST_HUCK
****
This file was generated by PARSER (from files_GN.cpp)

@<TRIPOS>ATOM
      1 O4          3.8756   -5.1705    7.0955 O.2         1 HS4      -0.1501
      2 S1          3.9831   -6.7562    7.0392 S.o2        1 HS4       0.0703
      3 O3          2.7565   -7.3988    7.8201 O.2         1 HS4      -0.1501
      4 N1          3.9946   -7.2663    5.4304 N.am        1 HS4      -0.2276
      5 C12         2.8386   -7.2450    4.6005 C.3         1 HS4       0.1298
      6 C14         1.8868   -8.2729    4.9747 C.2         1 HS4       0.3057
      7 O1          0.7373   -7.9552    5.2598 O.2         1 HS4      -0.3264
      8 N2          2.2806   -9.5348    5.0299 N.2         1 HS4       0.0367
      9 O2          1.5746  -10.4545    5.3514 O.2         1 HS4      -0.1732
     10 C13         5.4377   -7.1900    7.8932 C.ar        1 HS4       0.1083
     11 C10         5.4691   -7.1564    9.3013 C.ar        1 HS4      -0.0345
     12 C5          6.6509   -7.4737    9.9950 C.ar        1 HS4      -0.0522
     13 C11         6.6048   -7.5560    7.1931 C.ar        1 HS4      -0.0345
     14 C8          7.7777   -7.8913    7.8923 C.ar        1 HS4      -0.0522
     15 C2          7.8349   -7.8555    9.3093 C.ar        1 HS4      -0.0178
     16 C1          9.0410   -8.1709   10.0174 C.ar        1 HS4      -0.0179
     17 C4         10.3118   -7.8077    9.5020 C.ar        1 HS4      -0.0540
     18 C7         11.4976   -8.1154   10.1915 C.ar        1 HS4      -0.0612
     19 C9         11.4395   -8.7940   11.4213 C.ar        1 HS4      -0.0617
     20 C6         10.1933   -9.1642   11.9545 C.ar        1 HS4      -0.0612
     21 C3          9.0076   -8.8598   11.2582 C.ar        1 HS4      -0.0540
     22 H1          4.7339   -7.8203    5.1429 H           1 HS4       0.1703
     23 H2          3.1562   -7.4233    3.5718 H           1 HS4       0.0728
     24 H3          2.3847   -6.2507    4.6366 H           1 HS4       0.0728
     25 H4          4.6354   -6.8864    9.8353 H           1 HS4       0.0637
     26 H5          6.6362   -7.4062   11.0177 H           1 HS4       0.0624
     27 H6          6.6237   -7.5774    6.1711 H           1 HS4       0.0637
     28 H7          8.5943   -8.1776    7.3449 H           1 HS4       0.0624
     29 H8         10.3926   -7.2983    8.6202 H           1 HS4       0.0624
     30 H9         12.4013   -7.8452    9.7997 H           1 HS4       0.0618
     31 H10        12.2982   -9.0198   11.9276 H           1 HS4       0.0618
     32 H11        10.1453   -9.6614   12.8484 H           1 HS4       0.0618
     33 H12         8.1204   -9.1667   11.6711 H           1 HS4       0.0624
@<TRIPOS>BOND
     1     1     2   2
     2     2     3   2
     3     2     4  am
     4     2    10   1
     5     4     5   1
     6     5     6   1
     7     6     7   2
     8     6     8   1
     9     8     9   2
    10    10    11  ar
    11    10    13  ar
    12    11    12  ar
    13    12    15  ar
    14    13    14  ar
    15    14    15  ar
    16    15    16   1
    17    16    17  ar
    18    16    21  ar
    19    17    18  ar
    20    18    19  ar
    21    19    20  ar
    22    20    21  ar
    23     4    22   1
    24     5    23   1
    25     5    24   1
    26    11    25   1
    27    12    26   1
    28    13    27   1
    29    14    28   1
    30    17    29   1
    31    18    30   1
    32    19    31   1
    33    20    32   1
    34    21    33   1
@<TRIPOS>SUBSTRUCTURE
     1  HS4      5

