@<TRIPOS>MOLECULE
3f17_ligand_002
    33    34
SMALL
GAST_HUCK
****
This file was generated by PARSER (from files_GN.cpp)

@<TRIPOS>ATOM
      1 O4          2.2152   -6.8049    7.0286 O.2         1 HS4      -0.1501
      2 S1          3.5413   -7.1679    6.2339 S.o2        1 HS4       0.0703
      3 O3          3.2900   -8.4897    5.3847 O.2         1 HS4      -0.1501
      4 N1          3.9040   -5.9135    5.1584 N.am        1 HS4      -0.2276
      5 C12         3.1067   -5.5841    4.0233 C.3         1 HS4       0.1298
      6 C14         2.3165   -4.3710    4.1938 C.2         1 HS4       0.3057
      7 O1          1.1200   -4.4135    3.9341 O.2         1 HS4      -0.3264
      8 N2          2.9065   -3.2255    4.4901 N.2         1 HS4       0.0367
      9 O2          2.3121   -2.1788    4.5954 O.2         1 HS4      -0.1732
     10 C13         4.8603   -7.5227    7.3252 C.ar        1 HS4       0.1083
     11 C10         6.1903   -7.5383    6.8527 C.ar        1 HS4      -0.0345
     12 C5          7.2572   -7.8371    7.7197 C.ar        1 HS4      -0.0522
     13 C11         4.6244   -7.8194    8.6855 C.ar        1 HS4      -0.0345
     14 C8          5.6922   -8.1077    9.5572 C.ar        1 HS4      -0.0522
     15 C2          7.0339   -8.1274    9.0901 C.ar        1 HS4      -0.0178
     16 C1          8.1244   -8.4375    9.9680 C.ar        1 HS4      -0.0179
     17 C4          9.3259   -7.6765    9.9388 C.ar        1 HS4      -0.0540
     18 C7         10.4182   -7.9991   10.7745 C.ar        1 HS4      -0.0612
     19 C9         10.3278   -9.0845   11.6634 C.ar        1 HS4      -0.0617
     20 C6          9.1471   -9.8449   11.7207 C.ar        1 HS4      -0.0612
     21 C3          8.0541   -9.5224   10.8808 C.ar        1 HS4      -0.0540
     22 H1          4.7509   -5.4547    5.2721 H           1 HS4       0.1703
     23 H2          2.4431   -6.4137    3.7599 H           1 HS4       0.0728
     24 H3          3.7838   -5.4266    3.1805 H           1 HS4       0.0728
     25 H4          6.3940   -7.3441    5.8653 H           1 HS4       0.0637
     26 H5          8.2023   -7.8632    7.3284 H           1 HS4       0.0624
     27 H6          3.6671   -7.8322    9.0556 H           1 HS4       0.0637
     28 H7          5.4804   -8.2941   10.5386 H           1 HS4       0.0624
     29 H8          9.4224   -6.8662    9.3169 H           1 HS4       0.0624
     30 H9         11.2747   -7.4418   10.7310 H           1 HS4       0.0618
     31 H10        11.1176   -9.3204   12.2660 H           1 HS4       0.0618
     32 H11         9.0794  -10.6380   12.3622 H           1 HS4       0.0618
     33 H12         7.2174  -10.1152   10.9337 H           1 HS4       0.0624
@<TRIPOS>BOND
     1     1     2   2
     2     2     3   2
     3     2     4  am
     4     2    10   1
     5     4     5   1
     6     5     6   1
     7     6     7   2
     8     6     8   1
     9     8     9   2
    10    10    11  ar
    11    10    13  ar
    12    11    12  ar
    13    12    15  ar
    14    13    14  ar
    15    14    15  ar
    16    15    16   1
    17    16    17  ar
    18    16    21  ar
    19    17    18  ar
    20    18    19  ar
    21    19    20  ar
    22    20    21  ar
    23     4    22   1
    24     5    23   1
    25     5    24   1
    26    11    25   1
    27    12    26   1
    28    13    27   1
    29    14    28   1
    30    17    29   1
    31    18    30   1
    32    19    31   1
    33    20    32   1
    34    21    33   1
@<TRIPOS>SUBSTRUCTURE
     1  HS4      5

