@<TRIPOS>MOLECULE
3f17_ligand_032
    33    34
SMALL
GAST_HUCK
****
This file was generated by PARSER (from files_GN.cpp)

@<TRIPOS>ATOM
      1 O4          3.9436   -5.2902    3.6808 O.2         1 HS4      -0.1501
      2 S1          3.2237   -5.0051    5.0722 S.o2        1 HS4       0.0703
      3 O3          3.0746   -3.4214    5.1590 O.2         1 HS4      -0.1501
      4 N1          1.7191   -5.7654    4.9547 N.am        1 HS4      -0.2276
      5 C12         0.9940   -6.3028    6.0641 C.3         1 HS4       0.1298
      6 C14         1.8290   -6.9697    7.0439 C.2         1 HS4       0.3057
      7 O1          2.6490   -7.8056    6.6715 O.2         1 HS4      -0.3264
      8 N2          1.7213   -6.6508    8.3223 N.2         1 HS4       0.0367
      9 O2          2.3918   -7.1119    9.2071 O.2         1 HS4      -0.1732
     10 C13         4.2497   -5.6034    6.3511 C.ar        1 HS4       0.1083
     11 C10         3.9741   -5.2604    7.6907 C.ar        1 HS4      -0.0345
     12 C5          4.7205   -5.8269    8.7407 C.ar        1 HS4      -0.0522
     13 C11         5.2837   -6.5232    6.0779 C.ar        1 HS4      -0.0345
     14 C8          6.0337   -7.0845    7.1253 C.ar        1 HS4      -0.0522
     15 C2          5.7591   -6.7500    8.4739 C.ar        1 HS4      -0.0178
     16 C1          6.4769   -7.3647    9.5366 C.ar        1 HS4      -0.0179
     17 C4          7.2092   -6.5962   10.4757 C.ar        1 HS4      -0.0540
     18 C7          7.9260   -7.2228   11.5138 C.ar        1 HS4      -0.0612
     19 C9          7.9131   -8.6223   11.6316 C.ar        1 HS4      -0.0617
     20 C6          7.1648   -9.3963   10.7291 C.ar        1 HS4      -0.0612
     21 C3          6.4604   -8.7709    9.6848 C.ar        1 HS4      -0.0540
     22 H1          1.2035   -5.5860    4.1430 H           1 HS4       0.1703
     23 H2          0.2958   -7.0415    5.6671 H           1 HS4       0.0728
     24 H3          0.4009   -5.4991    6.5120 H           1 HS4       0.0728
     25 H4          3.2090   -4.6201    7.9146 H           1 HS4       0.0637
     26 H5          4.4759   -5.5845    9.7054 H           1 HS4       0.0624
     27 H6          5.4819   -6.8105    5.1199 H           1 HS4       0.0637
     28 H7          6.7777   -7.7510    6.8954 H           1 HS4       0.0624
     29 H8          7.2415   -5.5764   10.4039 H           1 HS4       0.0624
     30 H9          8.4568   -6.6599   12.1814 H           1 HS4       0.0618
     31 H10         8.4467   -9.0807   12.3755 H           1 HS4       0.0618
     32 H11         7.1328  -10.4117   10.8343 H           1 HS4       0.0618
     33 H12         5.9171   -9.3519    9.0407 H           1 HS4       0.0624
@<TRIPOS>BOND
     1     1     2   2
     2     2     3   2
     3     2     4  am
     4     2    10   1
     5     4     5   1
     6     5     6   1
     7     6     7   2
     8     6     8   1
     9     8     9   2
    10    10    11  ar
    11    10    13  ar
    12    11    12  ar
    13    12    15  ar
    14    13    14  ar
    15    14    15  ar
    16    15    16   1
    17    16    17  ar
    18    16    21  ar
    19    17    18  ar
    20    18    19  ar
    21    19    20  ar
    22    20    21  ar
    23     4    22   1
    24     5    23   1
    25     5    24   1
    26    11    25   1
    27    12    26   1
    28    13    27   1
    29    14    28   1
    30    17    29   1
    31    18    30   1
    32    19    31   1
    33    20    32   1
    34    21    33   1
@<TRIPOS>SUBSTRUCTURE
     1  HS4      5

