@<TRIPOS>MOLECULE
3f17_ligand_016
    33    34
SMALL
GAST_HUCK
****
This file was generated by PARSER (from files_GN.cpp)

@<TRIPOS>ATOM
      1 O4          6.8231   -9.5332    9.9571 O.2         1 HS4      -0.1501
      2 S1          6.3153   -8.2023   10.6653 S.o2        1 HS4       0.0703
      3 O3          5.3050   -8.5733   11.8335 O.2         1 HS4      -0.1501
      4 N1          7.6454   -7.3888   11.3048 N.am        1 HS4      -0.2276
      5 C12         8.7749   -8.0474   11.8713 C.3         1 HS4       0.1298
      6 C14         9.8731   -8.1402   10.9207 C.2         1 HS4       0.3057
      7 O1          9.7004   -8.7520    9.8709 O.2         1 HS4      -0.3264
      8 N2         11.0528   -7.6137   11.2081 N.2         1 HS4       0.0367
      9 O2         12.0147   -7.6463   10.4846 O.2         1 HS4      -0.1732
     10 C13         5.5402   -7.2949    9.4014 C.ar        1 HS4       0.1083
     11 C10         6.2874   -6.8598    8.2838 C.ar        1 HS4      -0.0345
     12 C5          5.6588   -6.1454    7.2504 C.ar        1 HS4      -0.0522
     13 C11         4.1664   -6.9875    9.4662 C.ar        1 HS4      -0.0345
     14 C8          3.5446   -6.2686    8.4289 C.ar        1 HS4      -0.0522
     15 C2          4.2780   -5.8243    7.2952 C.ar        1 HS4      -0.0178
     16 C1          3.6550   -5.0719    6.2468 C.ar        1 HS4      -0.0179
     17 C4          4.1575   -5.0907    4.9199 C.ar        1 HS4      -0.0540
     18 C7          3.5785   -4.3159    3.9038 C.ar        1 HS4      -0.0612
     19 C9          2.4670   -3.5062    4.1862 C.ar        1 HS4      -0.0617
     20 C6          1.9365   -3.4781    5.4862 C.ar        1 HS4      -0.0612
     21 C3          2.5230   -4.2521    6.5019 C.ar        1 HS4      -0.0540
     22 H1          7.7009   -6.4251   11.1461 H           1 HS4       0.1703
     23 H2          8.5228   -9.0559   12.2125 H           1 HS4       0.0728
     24 H3          9.0648   -7.4748   12.7521 H           1 HS4       0.0728
     25 H4          7.2928   -7.0600    8.2168 H           1 HS4       0.0637
     26 H5          6.2412   -5.8483    6.4669 H           1 HS4       0.0624
     27 H6          3.6028   -7.2916   10.2688 H           1 HS4       0.0637
     28 H7          2.5436   -6.0953    8.5093 H           1 HS4       0.0624
     29 H8          4.9512   -5.6811    4.6730 H           1 HS4       0.0624
     30 H9          3.9659   -4.3412    2.9563 H           1 HS4       0.0618
     31 H10         2.0454   -2.9399    3.4460 H           1 HS4       0.0618
     32 H11         1.1314   -2.8851    5.6981 H           1 HS4       0.0618
     33 H12         2.1267   -4.1909    7.4381 H           1 HS4       0.0624
@<TRIPOS>BOND
     1     1     2   2
     2     2     3   2
     3     2     4  am
     4     2    10   1
     5     4     5   1
     6     5     6   1
     7     6     7   2
     8     6     8   1
     9     8     9   2
    10    10    11  ar
    11    10    13  ar
    12    11    12  ar
    13    12    15  ar
    14    13    14  ar
    15    14    15  ar
    16    15    16   1
    17    16    17  ar
    18    16    21  ar
    19    17    18  ar
    20    18    19  ar
    21    19    20  ar
    22    20    21  ar
    23     4    22   1
    24     5    23   1
    25     5    24   1
    26    11    25   1
    27    12    26   1
    28    13    27   1
    29    14    28   1
    30    17    29   1
    31    18    30   1
    32    19    31   1
    33    20    32   1
    34    21    33   1
@<TRIPOS>SUBSTRUCTURE
     1  HS4      5

