@<TRIPOS>MOLECULE
3f17_ligand_038
    33    34
SMALL
GAST_HUCK
****
This file was generated by PARSER (from files_GN.cpp)

@<TRIPOS>ATOM
      1 O4          4.6388   -5.4529    6.9474 O.2         1 HS4      -0.1501
      2 S1          3.5450   -6.4946    6.4431 S.o2        1 HS4       0.0703
      3 O3          4.0999   -7.9286    6.8579 O.2         1 HS4      -0.1501
      4 N1          2.0981   -6.2878    7.2796 N.am        1 HS4      -0.2276
      5 C12         1.5253   -5.0112    7.5275 C.3         1 HS4       0.1298
      6 C14         1.4490   -4.1704    6.3435 C.2         1 HS4       0.3057
      7 O1          0.4940   -4.2891    5.5817 O.2         1 HS4      -0.3264
      8 N2          2.4599   -3.3743    6.0400 N.2         1 HS4       0.0367
      9 O2          2.5209   -2.6596    5.0783 O.2         1 HS4      -0.1732
     10 C13         3.2702   -6.4429    4.7300 C.ar        1 HS4       0.1083
     11 C10         2.6063   -7.5147    4.1011 C.ar        1 HS4      -0.0345
     12 C5          2.2835   -7.4499    2.7335 C.ar        1 HS4      -0.0522
     13 C11         3.6192   -5.3010    3.9819 C.ar        1 HS4      -0.0345
     14 C8          3.3310   -5.2532    2.6057 C.ar        1 HS4      -0.0522
     15 C2          2.6520   -6.3187    1.9640 C.ar        1 HS4      -0.0178
     16 C1          2.3753   -6.2692    0.5731 C.ar        1 HS4      -0.0179
     17 C4          1.0435   -6.2526    0.0958 C.ar        1 HS4      -0.0540
     18 C7          0.7808   -6.2048   -1.2836 C.ar        1 HS4      -0.0612
     19 C9          1.8467   -6.1861   -2.2031 C.ar        1 HS4      -0.0617
     20 C6          3.1740   -6.2076   -1.7408 C.ar        1 HS4      -0.0612
     21 C3          3.4386   -6.2424   -0.3625 C.ar        1 HS4      -0.0540
     22 H1          1.8303   -7.0167    7.8588 H           1 HS4       0.1703
     23 H2          2.1090   -4.5213    8.3092 H           1 HS4       0.0728
     24 H3          0.5192   -5.1582    7.9185 H           1 HS4       0.0728
     25 H4          2.3368   -8.3477    4.6319 H           1 HS4       0.0637
     26 H5          1.7939   -8.2366    2.2976 H           1 HS4       0.0624
     27 H6          4.0594   -4.4906    4.4303 H           1 HS4       0.0637
     28 H7          3.6045   -4.4254    2.0661 H           1 HS4       0.0624
     29 H8          0.2575   -6.2625    0.7497 H           1 HS4       0.0624
     30 H9         -0.1822   -6.1860   -1.6222 H           1 HS4       0.0618
     31 H10         1.6548   -6.1595   -3.2105 H           1 HS4       0.0618
     32 H11         3.9466   -6.2014   -2.4092 H           1 HS4       0.0618
     33 H12         4.4093   -6.2680   -0.0459 H           1 HS4       0.0624
@<TRIPOS>BOND
     1     1     2   2
     2     2     3   2
     3     2     4  am
     4     2    10   1
     5     4     5   1
     6     5     6   1
     7     6     7   2
     8     6     8   1
     9     8     9   2
    10    10    11  ar
    11    10    13  ar
    12    11    12  ar
    13    12    15  ar
    14    13    14  ar
    15    14    15  ar
    16    15    16   1
    17    16    17  ar
    18    16    21  ar
    19    17    18  ar
    20    18    19  ar
    21    19    20  ar
    22    20    21  ar
    23     4    22   1
    24     5    23   1
    25     5    24   1
    26    11    25   1
    27    12    26   1
    28    13    27   1
    29    14    28   1
    30    17    29   1
    31    18    30   1
    32    19    31   1
    33    20    32   1
    34    21    33   1
@<TRIPOS>SUBSTRUCTURE
     1  HS4      5

