@<TRIPOS>MOLECULE
3f17_ligand_005
    33    34
SMALL
GAST_HUCK
****
This file was generated by PARSER (from files_GN.cpp)

@<TRIPOS>ATOM
      1 O4          1.1316    0.8983    5.6770 O.2         1 HS4      -0.1501
      2 S1          1.1909   -0.3564    4.7018 S.o2        1 HS4       0.0703
      3 O3          2.4412   -0.0319    3.7784 O.2         1 HS4      -0.1501
      4 N1          1.5138   -1.6211    5.7739 N.am        1 HS4      -0.2276
      5 C12         1.6105   -3.0096    5.4546 C.3         1 HS4       0.1298
      6 C14         2.0811   -3.3314    4.1235 C.2         1 HS4       0.3057
      7 O1          3.1780   -2.9183    3.7704 O.2         1 HS4      -0.3264
      8 N2          1.3582   -4.0963    3.3245 N.2         1 HS4       0.0367
      9 O2          1.6778   -4.4336    2.2158 O.2         1 HS4      -0.1732
     10 C13        -0.3242   -0.2534    3.8506 C.ar        1 HS4       0.1083
     11 C10        -1.1105   -1.3996    3.6233 C.ar        1 HS4      -0.0345
     12 C5         -2.3432   -1.2991    2.9537 C.ar        1 HS4      -0.0522
     13 C11        -0.7900    0.9975    3.3878 C.ar        1 HS4      -0.0345
     14 C8         -2.0297    1.1001    2.7300 C.ar        1 HS4      -0.0522
     15 C2         -2.8303   -0.0474    2.5056 C.ar        1 HS4      -0.0178
     16 C1         -4.0915    0.0615    1.8469 C.ar        1 HS4      -0.0179
     17 C4         -5.2323   -0.6243    2.3476 C.ar        1 HS4      -0.0540
     18 C7         -6.4751   -0.5213    1.7013 C.ar        1 HS4      -0.0612
     19 C9         -6.6097    0.2598    0.5419 C.ar        1 HS4      -0.0617
     20 C6         -5.4956    0.9473    0.0311 C.ar        1 HS4      -0.0612
     21 C3         -4.2505    0.8508    0.6804 C.ar        1 HS4      -0.0540
     22 H1          1.4622   -1.4045    6.7219 H           1 HS4       0.1703
     23 H2          0.6333   -3.4605    5.6435 H           1 HS4       0.0728
     24 H3          2.3164   -3.4532    6.1620 H           1 HS4       0.0728
     25 H4         -0.7943   -2.3170    3.9429 H           1 HS4       0.0637
     26 H5         -2.8713   -2.1546    2.7845 H           1 HS4       0.0624
     27 H6         -0.2369    1.8475    3.5413 H           1 HS4       0.0637
     28 H7         -2.3459    2.0275    2.4359 H           1 HS4       0.0624
     29 H8         -5.1673   -1.1872    3.2003 H           1 HS4       0.0624
     30 H9         -7.2828   -1.0122    2.0800 H           1 HS4       0.0618
     31 H10        -7.5139    0.3309    0.0761 H           1 HS4       0.0618
     32 H11        -5.5886    1.5169   -0.8087 H           1 HS4       0.0618
     33 H12        -3.4509    1.3498    0.2775 H           1 HS4       0.0624
@<TRIPOS>BOND
     1     1     2   2
     2     2     3   2
     3     2     4  am
     4     2    10   1
     5     4     5   1
     6     5     6   1
     7     6     7   2
     8     6     8   1
     9     8     9   2
    10    10    11  ar
    11    10    13  ar
    12    11    12  ar
    13    12    15  ar
    14    13    14  ar
    15    14    15  ar
    16    15    16   1
    17    16    17  ar
    18    16    21  ar
    19    17    18  ar
    20    18    19  ar
    21    19    20  ar
    22    20    21  ar
    23     4    22   1
    24     5    23   1
    25     5    24   1
    26    11    25   1
    27    12    26   1
    28    13    27   1
    29    14    28   1
    30    17    29   1
    31    18    30   1
    32    19    31   1
    33    20    32   1
    34    21    33   1
@<TRIPOS>SUBSTRUCTURE
     1  HS4      5

