@<TRIPOS>MOLECULE
3f17_ligand_042
    33    34
SMALL
GAST_HUCK
****
This file was generated by PARSER (from files_GN.cpp)

@<TRIPOS>ATOM
      1 O4          2.7591   -2.5505    4.1040 O.2         1 HS4      -0.1501
      2 S1          1.1720   -2.6061    4.0392 S.o2        1 HS4       0.0703
      3 O3          0.8069   -3.9834    4.7450 O.2         1 HS4      -0.1501
      4 N1          0.5586   -1.3754    5.0141 N.am        1 HS4      -0.2276
      5 C12         1.1371   -0.0770    5.1018 C.3         1 HS4       0.1298
      6 C14         0.4601    0.8520    4.2228 C.2         1 HS4       0.3057
      7 O1         -0.2018    1.7674    4.6963 O.2         1 HS4      -0.3264
      8 N2          0.5655    0.7134    2.9131 N.2         1 HS4       0.0367
      9 O2          0.0452    1.4411    2.1077 O.2         1 HS4      -0.1732
     10 C13         0.5487   -2.5823    2.4158 C.ar        1 HS4       0.1083
     11 C10         1.4111   -2.4080    1.3158 C.ar        1 HS4      -0.0345
     12 C5          0.8951   -2.3574    0.0081 C.ar        1 HS4      -0.0522
     13 C11        -0.8363   -2.7191    2.1916 C.ar        1 HS4      -0.0345
     14 C8         -1.3496   -2.6895    0.8800 C.ar        1 HS4      -0.0522
     15 C2         -0.4925   -2.4962   -0.2296 C.ar        1 HS4      -0.0178
     16 C1         -1.0127   -2.4342   -1.5531 C.ar        1 HS4      -0.0179
     17 C4         -1.7946   -3.4926   -2.0768 C.ar        1 HS4      -0.0540
     18 C7         -2.2975   -3.4337   -3.3914 C.ar        1 HS4      -0.0612
     19 C9         -2.0428   -2.3082   -4.1943 C.ar        1 HS4      -0.0617
     20 C6         -1.2797   -1.2436   -3.6843 C.ar        1 HS4      -0.0612
     21 C3         -0.7610   -1.3097   -2.3766 C.ar        1 HS4      -0.0540
     22 H1         -0.3131   -1.5168    5.4118 H           1 HS4       0.1703
     23 H2          2.2023   -0.0926    4.8607 H           1 HS4       0.0728
     24 H3          1.0548    0.2434    6.1442 H           1 HS4       0.0728
     25 H4          2.4195   -2.3157    1.4556 H           1 HS4       0.0637
     26 H5          1.5467   -2.2397   -0.7717 H           1 HS4       0.0624
     27 H6         -1.4792   -2.8415    2.9786 H           1 HS4       0.0637
     28 H7         -2.3581   -2.7884    0.7452 H           1 HS4       0.0624
     29 H8         -1.9845   -4.3254   -1.5134 H           1 HS4       0.0624
     30 H9         -2.8475   -4.2107   -3.7647 H           1 HS4       0.0618
     31 H10        -2.4114   -2.2643   -5.1474 H           1 HS4       0.0618
     32 H11        -1.1011   -0.4212   -4.2657 H           1 HS4       0.0618
     33 H12        -0.2151   -0.5192   -2.0234 H           1 HS4       0.0624
@<TRIPOS>BOND
     1     1     2   2
     2     2     3   2
     3     2     4  am
     4     2    10   1
     5     4     5   1
     6     5     6   1
     7     6     7   2
     8     6     8   1
     9     8     9   2
    10    10    11  ar
    11    10    13  ar
    12    11    12  ar
    13    12    15  ar
    14    13    14  ar
    15    14    15  ar
    16    15    16   1
    17    16    17  ar
    18    16    21  ar
    19    17    18  ar
    20    18    19  ar
    21    19    20  ar
    22    20    21  ar
    23     4    22   1
    24     5    23   1
    25     5    24   1
    26    11    25   1
    27    12    26   1
    28    13    27   1
    29    14    28   1
    30    17    29   1
    31    18    30   1
    32    19    31   1
    33    20    32   1
    34    21    33   1
@<TRIPOS>SUBSTRUCTURE
     1  HS4      5

