@<TRIPOS>MOLECULE
3f17_ligand_014
    33    34
SMALL
GAST_HUCK
****
This file was generated by PARSER (from files_GN.cpp)

@<TRIPOS>ATOM
      1 O4          7.0518   -9.3130    9.5159 O.2         1 HS4      -0.1501
      2 S1          6.8402   -7.7588    9.2506 S.o2        1 HS4       0.0703
      3 O3          6.5559   -7.1434   10.6892 O.2         1 HS4      -0.1501
      4 N1          8.2656   -7.0779    8.6589 N.am        1 HS4      -0.2276
      5 C12         9.3400   -7.8321    8.1099 C.3         1 HS4       0.1298
      6 C14        10.1836   -8.4032    9.1416 C.2         1 HS4       0.3057
      7 O1         10.6522   -7.6724   10.0057 O.2         1 HS4      -0.3264
      8 N2         10.4693   -9.6927    9.1267 N.2         1 HS4       0.0367
      9 O2         11.1634  -10.2528    9.9344 O.2         1 HS4      -0.1732
     10 C13         5.4698   -7.5878    8.1927 C.ar        1 HS4       0.1083
     11 C10         5.6604   -7.5347    6.7966 C.ar        1 HS4      -0.0345
     12 C5          4.5536   -7.4586    5.9326 C.ar        1 HS4      -0.0522
     13 C11         4.1622   -7.5448    8.7188 C.ar        1 HS4      -0.0345
     14 C8          3.0551   -7.4394    7.8569 C.ar        1 HS4      -0.0522
     15 C2          3.2426   -7.4129    6.4566 C.ar        1 HS4      -0.0178
     16 C1          2.1352   -7.3616    5.5850 C.ar        1 HS4      -0.0179
     17 C4          1.5021   -6.1292    5.3038 C.ar        1 HS4      -0.0540
     18 C7          0.4128   -6.0811    4.4132 C.ar        1 HS4      -0.0612
     19 C9         -0.0615   -7.2624    3.8138 C.ar        1 HS4      -0.0617
     20 C6          0.5602   -8.4931    4.0946 C.ar        1 HS4      -0.0612
     21 C3          1.6595   -8.5429    4.9715 C.ar        1 HS4      -0.0540
     22 H1          8.4225   -6.1354    8.8246 H           1 HS4       0.1703
     23 H2          9.9467   -7.1542    7.5058 H           1 HS4       0.0728
     24 H3          8.9476   -8.6035    7.4394 H           1 HS4       0.0728
     25 H4          6.6000   -7.5793    6.3937 H           1 HS4       0.0637
     26 H5          4.7121   -7.4404    4.9218 H           1 HS4       0.0624
     27 H6          4.0026   -7.5894    9.7291 H           1 HS4       0.0637
     28 H7          2.1152   -7.4002    8.2597 H           1 HS4       0.0624
     29 H8          1.8329   -5.2612    5.7344 H           1 HS4       0.0624
     30 H9         -0.0435   -5.1879    4.2159 H           1 HS4       0.0618
     31 H10        -0.8584   -7.2281    3.1745 H           1 HS4       0.0618
     32 H11         0.2205   -9.3512    3.6558 H           1 HS4       0.0618
     33 H12         2.1051   -9.4460    5.1583 H           1 HS4       0.0624
@<TRIPOS>BOND
     1     1     2   2
     2     2     3   2
     3     2     4  am
     4     2    10   1
     5     4     5   1
     6     5     6   1
     7     6     7   2
     8     6     8   1
     9     8     9   2
    10    10    11  ar
    11    10    13  ar
    12    11    12  ar
    13    12    15  ar
    14    13    14  ar
    15    14    15  ar
    16    15    16   1
    17    16    17  ar
    18    16    21  ar
    19    17    18  ar
    20    18    19  ar
    21    19    20  ar
    22    20    21  ar
    23     4    22   1
    24     5    23   1
    25     5    24   1
    26    11    25   1
    27    12    26   1
    28    13    27   1
    29    14    28   1
    30    17    29   1
    31    18    30   1
    32    19    31   1
    33    20    32   1
    34    21    33   1
@<TRIPOS>SUBSTRUCTURE
     1  HS4      5

