@<TRIPOS>MOLECULE
3f17_ligand_022
    33    34
SMALL
GAST_HUCK
****
This file was generated by PARSER (from files_GN.cpp)

@<TRIPOS>ATOM
      1 O4          6.5983   -9.1642    9.1184 O.2         1 HS4      -0.1501
      2 S1          7.5921   -8.1631    8.3814 S.o2        1 HS4       0.0703
      3 O3          6.8866   -7.8921    6.9832 O.2         1 HS4      -0.1501
      4 N1          7.6690   -6.7011    9.2239 N.am        1 HS4      -0.2276
      5 C12         7.0895   -6.4934   10.5075 C.3         1 HS4       0.1298
      6 C14         5.6672   -6.7773   10.5620 C.2         1 HS4       0.3057
      7 O1          5.2566   -7.7142   11.2432 O.2         1 HS4      -0.3264
      8 N2          4.8322   -6.0601    9.8382 N.2         1 HS4       0.0367
      9 O2          3.6417   -6.2362    9.7964 O.2         1 HS4      -0.1732
     10 C13         9.1354   -8.9357    8.1795 C.ar        1 HS4       0.1083
     11 C10        10.0630   -8.4373    7.2468 C.ar        1 HS4      -0.0345
     12 C5         11.2955   -9.0916    7.0462 C.ar        1 HS4      -0.0522
     13 C11         9.4663  -10.0815    8.9360 C.ar        1 HS4      -0.0345
     14 C8         10.6912  -10.7442    8.7311 C.ar        1 HS4      -0.0522
     15 C2         11.6143  -10.2547    7.7818 C.ar        1 HS4      -0.0178
     16 C1         12.8354  -10.9288    7.5659 C.ar        1 HS4      -0.0179
     17 C4         12.8771  -12.0898    6.7621 C.ar        1 HS4      -0.0540
     18 C7         14.0958  -12.7530    6.5372 C.ar        1 HS4      -0.0612
     19 C9         15.2822  -12.2649    7.1189 C.ar        1 HS4      -0.0617
     20 C6         15.2454  -11.1131    7.9277 C.ar        1 HS4      -0.0612
     21 C3         14.0300  -10.4438    8.1472 C.ar        1 HS4      -0.0540
     22 H1          8.3207   -6.0516    8.9158 H           1 HS4       0.1703
     23 H2          7.2298   -5.4451   10.7730 H           1 HS4       0.0728
     24 H3          7.6432   -7.0874   11.2447 H           1 HS4       0.0728
     25 H4          9.8477   -7.6022    6.6968 H           1 HS4       0.0637
     26 H5         11.9464   -8.7269    6.3472 H           1 HS4       0.0624
     27 H6          8.8228  -10.4514    9.6406 H           1 HS4       0.0637
     28 H7         10.9055  -11.5852    9.2830 H           1 HS4       0.0624
     29 H8         12.0248  -12.4486    6.3252 H           1 HS4       0.0624
     30 H9         14.1244  -13.5882    5.9513 H           1 HS4       0.0618
     31 H10        16.1714  -12.7484    6.9546 H           1 HS4       0.0618
     32 H11        16.1067  -10.7654    8.3520 H           1 HS4       0.0618
     33 H12        14.0146   -9.6110    8.7385 H           1 HS4       0.0624
@<TRIPOS>BOND
     1     1     2   2
     2     2     3   2
     3     2     4  am
     4     2    10   1
     5     4     5   1
     6     5     6   1
     7     6     7   2
     8     6     8   1
     9     8     9   2
    10    10    11  ar
    11    10    13  ar
    12    11    12  ar
    13    12    15  ar
    14    13    14  ar
    15    14    15  ar
    16    15    16   1
    17    16    17  ar
    18    16    21  ar
    19    17    18  ar
    20    18    19  ar
    21    19    20  ar
    22    20    21  ar
    23     4    22   1
    24     5    23   1
    25     5    24   1
    26    11    25   1
    27    12    26   1
    28    13    27   1
    29    14    28   1
    30    17    29   1
    31    18    30   1
    32    19    31   1
    33    20    32   1
    34    21    33   1
@<TRIPOS>SUBSTRUCTURE
     1  HS4      5

