@<TRIPOS>MOLECULE
3f17_ligand_007
    33    34
SMALL
GAST_HUCK
****
This file was generated by PARSER (from files_GN.cpp)

@<TRIPOS>ATOM
      1 O4          6.2579   -7.7726    6.7626 O.2         1 HS4      -0.1501
      2 S1          5.5244   -6.8766    7.8528 S.o2        1 HS4       0.0703
      3 O3          4.6851   -7.9454    8.6779 O.2         1 HS4      -0.1501
      4 N1          6.7019   -6.1951    8.8546 N.am        1 HS4      -0.2276
      5 C12         6.7354   -6.3512   10.2741 C.3         1 HS4       0.1298
      6 C14         7.2011   -7.6503   10.7344 C.2         1 HS4       0.3057
      7 O1          7.9320   -7.7255   11.7290 O.2         1 HS4      -0.3264
      8 N2          6.7202   -8.7400   10.1764 N.2         1 HS4       0.0367
      9 O2          6.9493   -9.8872   10.5138 O.2         1 HS4      -0.1732
     10 C13         4.3812   -5.7900    7.1059 C.ar        1 HS4       0.1083
     11 C10         4.5589   -5.3494    5.7777 C.ar        1 HS4      -0.0345
     12 C5          3.5851   -4.5418    5.1566 C.ar        1 HS4      -0.0522
     13 C11         3.2184   -5.4059    7.8092 C.ar        1 HS4      -0.0345
     14 C8          2.2388   -4.6116    7.1854 C.ar        1 HS4      -0.0522
     15 C2          2.4195   -4.1691    5.8586 C.ar        1 HS4      -0.0178
     16 C1          1.4494   -3.3492    5.2506 C.ar        1 HS4      -0.0179
     17 C4          0.4495   -3.9130    4.4267 C.ar        1 HS4      -0.0540
     18 C7         -0.5192   -3.0891    3.8243 C.ar        1 HS4      -0.0612
     19 C9         -0.4929   -1.6980    4.0413 C.ar        1 HS4      -0.0617
     20 C6          0.4988   -1.1304    4.8645 C.ar        1 HS4      -0.0612
     21 C3          1.4660   -1.9541    5.4686 C.ar        1 HS4      -0.0540
     22 H1          7.3918   -5.6392    8.4452 H           1 HS4       0.1703
     23 H2          5.7350   -6.1673   10.6919 H           1 HS4       0.0728
     24 H3          7.3964   -5.5667   10.6704 H           1 HS4       0.0728
     25 H4          5.3953   -5.6112    5.2513 H           1 HS4       0.0637
     26 H5          3.7363   -4.2277    4.1966 H           1 HS4       0.0624
     27 H6          3.0647   -5.7147    8.7731 H           1 HS4       0.0637
     28 H7          1.3908   -4.3692    7.7044 H           1 HS4       0.0624
     29 H8          0.4151   -4.9231    4.2629 H           1 HS4       0.0624
     30 H9         -1.2442   -3.4998    3.2310 H           1 HS4       0.0618
     31 H10        -1.1983   -1.0980    3.6029 H           1 HS4       0.0618
     32 H11         0.5136   -0.1211    5.0239 H           1 HS4       0.0618
     33 H12         2.1820   -1.5272    6.0631 H           1 HS4       0.0624
@<TRIPOS>BOND
     1     1     2   2
     2     2     3   2
     3     2     4  am
     4     2    10   1
     5     4     5   1
     6     5     6   1
     7     6     7   2
     8     6     8   1
     9     8     9   2
    10    10    11  ar
    11    10    13  ar
    12    11    12  ar
    13    12    15  ar
    14    13    14  ar
    15    14    15  ar
    16    15    16   1
    17    16    17  ar
    18    16    21  ar
    19    17    18  ar
    20    18    19  ar
    21    19    20  ar
    22    20    21  ar
    23     4    22   1
    24     5    23   1
    25     5    24   1
    26    11    25   1
    27    12    26   1
    28    13    27   1
    29    14    28   1
    30    17    29   1
    31    18    30   1
    32    19    31   1
    33    20    32   1
    34    21    33   1
@<TRIPOS>SUBSTRUCTURE
     1  HS4      5

