@<TRIPOS>MOLECULE
3f3a_ligand_024
    27    28
SMALL
GAST_HUCK
****
This file was generated by PARSER (from files_GN.cpp)

@<TRIPOS>ATOM
      1 N         -24.9794  -11.3250  -26.8299 N.4         1 TRP       0.2336
      2 CA        -24.5085  -11.7614  -25.5023 C.3         1 TRP       0.0324
      3 C         -24.8477  -13.1805  -25.2546 C.2         1 TRP       0.0858
      4 O         -25.8561  -13.8061  -25.9070 O.co2       1 TRP      -0.5642
      5 CB        -24.9846  -10.7660  -24.3963 C.3         1 TRP       0.0190
      6 CG        -26.2773  -11.0988  -23.7527 C.2         1 TRP      -0.0392
      7 CD1       -26.4981  -12.1400  -22.8460 C.2         1 TRP       0.0167
      8 CD2       -27.5023  -10.4454  -23.8851 C.ar        1 TRP      -0.0213
      9 NE1       -27.7816  -12.1307  -22.4537 N.pl3       1 TRP      -0.2890
     10 CE2       -28.4130  -11.1206  -23.0688 C.ar        1 TRP       0.0603
     11 CE3       -27.9171   -9.3371  -24.6476 C.ar        1 TRP      -0.0747
     12 CZ2       -29.7584  -10.7209  -22.9843 C.ar        1 TRP      -0.0443
     13 CZ3       -29.2674   -8.9305  -24.5786 C.ar        1 TRP      -0.0792
     14 CH2       -30.1829   -9.6125  -23.7470 C.ar        1 TRP      -0.0768
     15 OXT       -24.1745  -13.8811  -24.3157 O.co2       1 TRP      -0.5642
     16 H1        -24.7245  -10.3466  -26.9881 H           1 TRP       0.2011
     17 H2        -25.9903  -11.4147  -26.9076 H           1 TRP       0.2011
     18 H3        -24.5348  -11.9010  -27.5516 H           1 TRP       0.2011
     19 H4        -23.4183  -11.6961  -25.5511 H           1 TRP       0.1040
     20 H5        -25.0498   -9.7604  -24.8334 H           1 TRP       0.0423
     21 H6        -24.2177  -10.7047  -23.6145 H           1 TRP       0.0423
     22 H7        -25.8055  -12.8140  -22.5260 H           1 TRP       0.0795
     23 H8        -28.1869  -12.7505  -21.8258 H           1 TRP       0.2216
     24 H9        -27.2564   -8.8337  -25.2407 H           1 TRP       0.0540
     25 H10       -30.4150  -11.2190  -22.3754 H           1 TRP       0.0541
     26 H11       -29.5830   -8.1246  -25.1220 H           1 TRP       0.0510
     27 H12       -31.1585   -9.3088  -23.7054 H           1 TRP       0.0530
@<TRIPOS>BOND
     1     2     1   1
     2     2     5   1
     3     2     3   1
     4     3     4  ar
     5     3    15  ar
     6     5     6   1
     7     6     7   2
     8     6     8   1
     9     8    11  ar
    10     8    10  ar
    11    10    12  ar
    12    10     9   1
    13     9     7   1
    14    12    14  ar
    15    14    13  ar
    16    13    11  ar
    17     1    16   1
    18     1    17   1
    19     1    18   1
    20     2    19   1
    21     5    20   1
    22     5    21   1
    23     7    22   1
    24     9    23   1
    25    11    24   1
    26    12    25   1
    27    13    26   1
    28    14    27   1
@<TRIPOS>SUBSTRUCTURE
     1  TRP      2

