@<TRIPOS>MOLECULE
3f3a_ligand_059
    27    28
SMALL
GAST_HUCK
****
This file was generated by PARSER (from files_GN.cpp)

@<TRIPOS>ATOM
      1 N         -25.1814   -9.7421  -26.8696 N.4         1 TRP       0.2336
      2 CA        -25.5526   -8.3623  -26.5039 C.3         1 TRP       0.0324
      3 C         -24.3376   -7.5128  -26.5435 C.2         1 TRP       0.0858
      4 O         -24.3558   -6.3213  -27.1959 O.co2       1 TRP      -0.5642
      5 CB        -26.2452   -8.3601  -25.1085 C.3         1 TRP       0.0190
      6 CG        -26.9306   -7.0862  -24.7861 C.2         1 TRP      -0.0392
      7 CD1       -28.2749   -6.7960  -25.0361 C.2         1 TRP       0.0167
      8 CD2       -26.4014   -5.9326  -24.2006 C.ar        1 TRP      -0.0213
      9 NE1       -28.5531   -5.5487  -24.6215 N.pl3       1 TRP      -0.2890
     10 CE2       -27.4416   -4.9994  -24.1174 C.ar        1 TRP       0.0603
     11 CE3       -25.1118   -5.5964  -23.7379 C.ar        1 TRP      -0.0747
     12 CZ2       -27.2365   -3.7153  -23.5767 C.ar        1 TRP      -0.0443
     13 CZ3       -24.8866   -4.3115  -23.1947 C.ar        1 TRP      -0.0792
     14 CH2       -25.9438   -3.3744  -23.1161 C.ar        1 TRP      -0.0768
     15 OXT       -23.1935   -7.8947  -25.9297 O.co2       1 TRP      -0.5642
     16 H1        -26.0254  -10.3210  -26.9142 H           1 TRP       0.2011
     17 H2        -24.5361  -10.1234  -26.1723 H           1 TRP       0.2011
     18 H3        -24.7279   -9.7385  -27.7873 H           1 TRP       0.2011
     19 H4        -26.2716   -8.0134  -27.2577 H           1 TRP       0.1040
     20 H5        -25.5126   -8.5865  -24.3336 H           1 TRP       0.0423
     21 H6        -26.9909   -9.1621  -25.0875 H           1 TRP       0.0423
     22 H7        -28.9504   -7.4284  -25.4632 H           1 TRP       0.0795
     23 H8        -29.4180   -5.1090  -24.6959 H           1 TRP       0.2216
     24 H9        -24.3357   -6.2598  -23.8096 H           1 TRP       0.0540
     25 H10       -28.0042   -3.0401  -23.5292 H           1 TRP       0.0541
     26 H11       -23.9523   -4.0531  -22.8640 H           1 TRP       0.0510
     27 H12       -25.7694   -2.4394  -22.7336 H           1 TRP       0.0530
@<TRIPOS>BOND
     1     2     1   1
     2     2     5   1
     3     2     3   1
     4     3     4  ar
     5     3    15  ar
     6     5     6   1
     7     6     7   2
     8     6     8   1
     9     8    11  ar
    10     8    10  ar
    11    10    12  ar
    12    10     9   1
    13     9     7   1
    14    12    14  ar
    15    14    13  ar
    16    13    11  ar
    17     1    16   1
    18     1    17   1
    19     1    18   1
    20     2    19   1
    21     5    20   1
    22     5    21   1
    23     7    22   1
    24     9    23   1
    25    11    24   1
    26    12    25   1
    27    13    26   1
    28    14    27   1
@<TRIPOS>SUBSTRUCTURE
     1  TRP      2

