@<TRIPOS>MOLECULE
3f3a_ligand_017
    27    28
SMALL
GAST_HUCK
****
This file was generated by PARSER (from files_GN.cpp)

@<TRIPOS>ATOM
      1 N         -29.6892    0.6706  -22.2384 N.4         1 TRP       0.2336
      2 CA        -28.9132   -0.5630  -22.4524 C.3         1 TRP       0.0324
      3 C         -27.7284   -0.3060  -23.3056 C.2         1 TRP       0.0858
      4 O         -27.5137    0.8957  -23.8897 O.co2       1 TRP      -0.5642
      5 CB        -29.8376   -1.6799  -23.0322 C.3         1 TRP       0.0190
      6 CG        -29.5532   -3.0248  -22.4748 C.2         1 TRP      -0.0392
      7 CD1       -29.7025   -3.4058  -21.1371 C.2         1 TRP       0.0167
      8 CD2       -29.1034   -4.1622  -23.1427 C.ar        1 TRP      -0.0213
      9 NE1       -29.3449   -4.6927  -20.9944 N.pl3       1 TRP      -0.2890
     10 CE2       -28.9815   -5.1788  -22.1908 C.ar        1 TRP       0.0603
     11 CE3       -28.7837   -4.4066  -24.4923 C.ar        1 TRP      -0.0747
     12 CZ2       -28.5387   -6.4631  -22.5483 C.ar        1 TRP      -0.0443
     13 CZ3       -28.3437   -5.6927  -24.8656 C.ar        1 TRP      -0.0792
     14 CH2       -28.2179   -6.7147  -23.8990 C.ar        1 TRP      -0.0768
     15 OXT       -26.7747   -1.2537  -23.4455 O.co2       1 TRP      -0.5642
     16 H1        -30.4640    0.4857  -21.5979 H           1 TRP       0.2011
     17 H2        -30.0562    1.0131  -23.1269 H           1 TRP       0.2011
     18 H3        -29.0853    1.3787  -21.8216 H           1 TRP       0.2011
     19 H4        -28.5422   -0.8494  -21.4650 H           1 TRP       0.1040
     20 H5        -29.7534   -1.6927  -24.1226 H           1 TRP       0.0423
     21 H6        -30.8847   -1.4590  -22.8096 H           1 TRP       0.0423
     22 H7        -30.0270   -2.8076  -20.3754 H           1 TRP       0.0795
     23 H8        -29.3532   -5.1916  -20.1616 H           1 TRP       0.2216
     24 H9        -28.8665   -3.6690  -25.1934 H           1 TRP       0.0540
     25 H10       -28.4532   -7.1995  -21.8449 H           1 TRP       0.0541
     26 H11       -28.1159   -5.8861  -25.8432 H           1 TRP       0.0510
     27 H12       -27.8953   -7.6422  -24.1806 H           1 TRP       0.0530
@<TRIPOS>BOND
     1     2     1   1
     2     2     5   1
     3     2     3   1
     4     3     4  ar
     5     3    15  ar
     6     5     6   1
     7     6     7   2
     8     6     8   1
     9     8    11  ar
    10     8    10  ar
    11    10    12  ar
    12    10     9   1
    13     9     7   1
    14    12    14  ar
    15    14    13  ar
    16    13    11  ar
    17     1    16   1
    18     1    17   1
    19     1    18   1
    20     2    19   1
    21     5    20   1
    22     5    21   1
    23     7    22   1
    24     9    23   1
    25    11    24   1
    26    12    25   1
    27    13    26   1
    28    14    27   1
@<TRIPOS>SUBSTRUCTURE
     1  TRP      2

