@<TRIPOS>MOLECULE
3f3a_ligand_052
    27    28
SMALL
GAST_HUCK
****
This file was generated by PARSER (from files_GN.cpp)

@<TRIPOS>ATOM
      1 N         -25.1432  -10.6511  -26.8016 N.4         1 TRP       0.2336
      2 CA        -25.2375   -9.6753  -25.7034 C.3         1 TRP       0.0324
      3 C         -25.4119  -10.4034  -24.4276 C.2         1 TRP       0.0858
      4 O         -24.3742  -10.5467  -23.5758 O.co2       1 TRP      -0.5642
      5 CB        -26.3843   -8.6619  -25.9788 C.3         1 TRP       0.0190
      6 CG        -26.4089   -7.5096  -25.0510 C.2         1 TRP      -0.0392
      7 CD1       -25.4225   -6.5253  -24.9690 C.2         1 TRP       0.0167
      8 CD2       -27.3644   -7.1845  -24.0851 C.ar        1 TRP      -0.0213
      9 NE1       -25.7516   -5.6446  -24.0133 N.pl3       1 TRP      -0.2890
     10 CE2       -26.9208   -6.0118  -23.4630 C.ar        1 TRP       0.0603
     11 CE3       -28.5490   -7.8071  -23.6456 C.ar        1 TRP      -0.0747
     12 CZ2       -27.6440   -5.4105  -22.4206 C.ar        1 TRP      -0.0443
     13 CZ3       -29.2820   -7.2252  -22.5859 C.ar        1 TRP      -0.0792
     14 CH2       -28.8362   -6.0308  -21.9790 C.ar        1 TRP      -0.0768
     15 OXT       -26.5526  -11.0877  -24.1699 O.co2       1 TRP      -0.5642
     16 H1        -24.9400  -10.1474  -27.6685 H           1 TRP       0.2011
     17 H2        -26.0234  -11.1529  -26.9156 H           1 TRP       0.2011
     18 H3        -24.3844  -11.3159  -26.6301 H           1 TRP       0.2011
     19 H4        -24.2870   -9.1362  -25.6852 H           1 TRP       0.1040
     20 H5        -27.3358   -9.1985  -25.9238 H           1 TRP       0.0423
     21 H6        -26.2886   -8.2809  -26.9983 H           1 TRP       0.0423
     22 H7        -24.5677   -6.4913  -25.5323 H           1 TRP       0.0795
     23 H8        -25.2312   -4.8716  -23.7498 H           1 TRP       0.2216
     24 H9        -28.8822   -8.6753  -24.0678 H           1 TRP       0.0540
     25 H10       -27.3146   -4.5501  -21.9779 H           1 TRP       0.0541
     26 H11       -30.1405   -7.6730  -22.2580 H           1 TRP       0.0510
     27 H12       -29.3679   -5.6137  -21.2122 H           1 TRP       0.0530
@<TRIPOS>BOND
     1     2     1   1
     2     2     5   1
     3     2     3   1
     4     3     4  ar
     5     3    15  ar
     6     5     6   1
     7     6     7   2
     8     6     8   1
     9     8    11  ar
    10     8    10  ar
    11    10    12  ar
    12    10     9   1
    13     9     7   1
    14    12    14  ar
    15    14    13  ar
    16    13    11  ar
    17     1    16   1
    18     1    17   1
    19     1    18   1
    20     2    19   1
    21     5    20   1
    22     5    21   1
    23     7    22   1
    24     9    23   1
    25    11    24   1
    26    12    25   1
    27    13    26   1
    28    14    27   1
@<TRIPOS>SUBSTRUCTURE
     1  TRP      2

