@<TRIPOS>MOLECULE
3f3a_ligand_021
    27    28
SMALL
GAST_HUCK
****
This file was generated by PARSER (from files_GN.cpp)

@<TRIPOS>ATOM
      1 N         -25.1408  -10.6726  -27.0677 N.4         1 TRP       0.2336
      2 CA        -25.1157   -9.2246  -26.8045 C.3         1 TRP       0.0324
      3 C         -23.7806   -8.6517  -27.1046 C.2         1 TRP       0.0858
      4 O         -23.5308   -7.3499  -26.8469 O.co2       1 TRP      -0.5642
      5 CB        -25.5302   -8.9332  -25.3355 C.3         1 TRP       0.0190
      6 CG        -26.9761   -9.1271  -25.0737 C.2         1 TRP      -0.0392
      7 CD1       -27.6309  -10.3420  -24.8580 C.2         1 TRP       0.0167
      8 CD2       -27.9574   -8.1414  -24.9681 C.ar        1 TRP      -0.0213
      9 NE1       -28.9355  -10.1096  -24.6321 N.pl3       1 TRP      -0.2890
     10 CE2       -29.1621   -8.7875  -24.6855 C.ar        1 TRP       0.0603
     11 CE3       -27.9154   -6.7366  -25.0941 C.ar        1 TRP      -0.0747
     12 CZ2       -30.3576   -8.0676  -24.5181 C.ar        1 TRP      -0.0443
     13 CZ3       -29.1107   -6.0021  -24.9402 C.ar        1 TRP      -0.0792
     14 CH2       -30.3236   -6.6653  -24.6516 C.ar        1 TRP      -0.0768
     15 OXT       -22.8111   -9.3624  -27.7277 O.co2       1 TRP      -0.5642
     16 H1        -26.0913  -11.0229  -26.9792 H           1 TRP       0.2011
     17 H2        -24.5277  -11.1611  -26.4129 H           1 TRP       0.2011
     18 H3        -24.8206  -10.8337  -28.0225 H           1 TRP       0.2011
     19 H4        -25.8320   -8.7577  -27.4820 H           1 TRP       0.1040
     20 H5        -25.2721   -7.9003  -25.0895 H           1 TRP       0.0423
     21 H6        -24.9614   -9.5767  -24.6575 H           1 TRP       0.0423
     22 H7        -27.1892  -11.2621  -24.8629 H           1 TRP       0.0795
     23 H8        -29.6033  -10.7880  -24.4548 H           1 TRP       0.2216
     24 H9        -27.0427   -6.2524  -25.3089 H           1 TRP       0.0540
     25 H10       -31.2312   -8.5533  -24.3106 H           1 TRP       0.0541
     26 H11       -29.0952   -4.9837  -25.0363 H           1 TRP       0.0510
     27 H12       -31.1851   -6.1240  -24.5461 H           1 TRP       0.0530
@<TRIPOS>BOND
     1     2     1   1
     2     2     5   1
     3     2     3   1
     4     3     4  ar
     5     3    15  ar
     6     5     6   1
     7     6     7   2
     8     6     8   1
     9     8    11  ar
    10     8    10  ar
    11    10    12  ar
    12    10     9   1
    13     9     7   1
    14    12    14  ar
    15    14    13  ar
    16    13    11  ar
    17     1    16   1
    18     1    17   1
    19     1    18   1
    20     2    19   1
    21     5    20   1
    22     5    21   1
    23     7    22   1
    24     9    23   1
    25    11    24   1
    26    12    25   1
    27    13    26   1
    28    14    27   1
@<TRIPOS>SUBSTRUCTURE
     1  TRP      2

