@<TRIPOS>MOLECULE
3f3a_ligand_003
    27    28
SMALL
GAST_HUCK
****
This file was generated by PARSER (from files_GN.cpp)

@<TRIPOS>ATOM
      1 N         -29.2409    0.5532  -22.4151 N.4         1 TRP       0.2336
      2 CA        -27.9235    0.0357  -22.8119 C.3         1 TRP       0.0324
      3 C         -27.2390    1.0821  -23.6066 C.2         1 TRP       0.0858
      4 O         -27.7009    1.4358  -24.8299 O.co2       1 TRP      -0.5642
      5 CB        -28.0737   -1.3290  -23.5602 C.3         1 TRP       0.0190
      6 CG        -27.1490   -2.3742  -23.0567 C.2         1 TRP      -0.0392
      7 CD1       -25.7671   -2.3866  -23.2488 C.2         1 TRP       0.0167
      8 CD2       -27.4353   -3.4880  -22.2639 C.ar        1 TRP      -0.0213
      9 NE1       -25.2368   -3.4492  -22.6189 N.pl3       1 TRP      -0.2890
     10 CE2       -26.2216   -4.1367  -22.0241 C.ar        1 TRP       0.0603
     11 CE3       -28.6240   -3.9822  -21.6914 C.ar        1 TRP      -0.0747
     12 CZ2       -26.1467   -5.3030  -21.2447 C.ar        1 TRP      -0.0443
     13 CZ3       -28.5625   -5.1426  -20.8887 C.ar        1 TRP      -0.0792
     14 CH2       -27.3337   -5.8046  -20.6756 C.ar        1 TRP      -0.0768
     15 OXT       -26.2154    1.8028  -23.0916 O.co2       1 TRP      -0.5642
     16 H1        -29.7598   -0.1734  -21.9177 H           1 TRP       0.2011
     17 H2        -29.7760    0.8431  -23.2386 H           1 TRP       0.2011
     18 H3        -29.1150    1.3512  -21.7922 H           1 TRP       0.2011
     19 H4        -27.3701   -0.1072  -21.8778 H           1 TRP       0.1040
     20 H5        -27.9002   -1.2061  -24.6345 H           1 TRP       0.0423
     21 H6        -29.0955   -1.7011  -23.4587 H           1 TRP       0.0423
     22 H7        -25.2334   -1.6766  -23.7534 H           1 TRP       0.0795
     23 H8        -24.2904   -3.6642  -22.5538 H           1 TRP       0.2216
     24 H9        -29.5149   -3.5055  -21.8378 H           1 TRP       0.0540
     25 H10       -25.2496   -5.7700  -21.0874 H           1 TRP       0.0541
     26 H11       -29.4127   -5.5032  -20.4527 H           1 TRP       0.0510
     27 H12       -27.3036   -6.6501  -20.0992 H           1 TRP       0.0530
@<TRIPOS>BOND
     1     2     1   1
     2     2     5   1
     3     2     3   1
     4     3     4  ar
     5     3    15  ar
     6     5     6   1
     7     6     7   2
     8     6     8   1
     9     8    11  ar
    10     8    10  ar
    11    10    12  ar
    12    10     9   1
    13     9     7   1
    14    12    14  ar
    15    14    13  ar
    16    13    11  ar
    17     1    16   1
    18     1    17   1
    19     1    18   1
    20     2    19   1
    21     5    20   1
    22     5    21   1
    23     7    22   1
    24     9    23   1
    25    11    24   1
    26    12    25   1
    27    13    26   1
    28    14    27   1
@<TRIPOS>SUBSTRUCTURE
     1  TRP      2

