@<TRIPOS>MOLECULE
3f3a_ligand_049
    27    28
SMALL
GAST_HUCK
****
This file was generated by PARSER (from files_GN.cpp)

@<TRIPOS>ATOM
      1 N         -27.5009   -6.7545  -26.9670 N.4         1 TRP       0.2336
      2 CA        -27.4346   -6.3712  -25.5480 C.3         1 TRP       0.0324
      3 C         -26.1308   -6.7974  -25.0038 C.2         1 TRP       0.0858
      4 O         -25.5785   -7.9773  -25.3606 O.co2       1 TRP      -0.5642
      5 CB        -28.6443   -6.9641  -24.7754 C.3         1 TRP       0.0190
      6 CG        -28.7806   -6.4579  -23.3874 C.2         1 TRP      -0.0392
      7 CD1       -28.5721   -7.2050  -22.2240 C.2         1 TRP       0.0167
      8 CD2       -29.1544   -5.1818  -22.9604 C.ar        1 TRP      -0.0213
      9 NE1       -28.7958   -6.4299  -21.1500 N.pl3       1 TRP      -0.2890
     10 CE2       -29.1496   -5.2040  -21.5628 C.ar        1 TRP       0.0603
     11 CE3       -29.5125   -4.0067  -23.6492 C.ar        1 TRP      -0.0747
     12 CZ2       -29.4974   -4.0688  -20.8122 C.ar        1 TRP      -0.0443
     13 CZ3       -29.8623   -2.8584  -22.9082 C.ar        1 TRP      -0.0792
     14 CH2       -29.8590   -2.8917  -21.4970 C.ar        1 TRP      -0.0768
     15 OXT       -25.4529   -6.0064  -24.1456 O.co2       1 TRP      -0.5642
     16 H1        -28.3639   -6.4076  -27.3802 H           1 TRP       0.2011
     17 H2        -27.4859   -7.7774  -27.0452 H           1 TRP       0.2011
     18 H3        -26.7003   -6.3683  -27.4737 H           1 TRP       0.2011
     19 H4        -27.5001   -5.2877  -25.5184 H           1 TRP       0.1040
     20 H5        -28.5651   -8.0577  -24.7601 H           1 TRP       0.0423
     21 H6        -29.5653   -6.7212  -25.3162 H           1 TRP       0.0423
     22 H7        -28.2972   -8.1901  -22.1815 H           1 TRP       0.0795
     23 H8        -28.7218   -6.7183  -20.2270 H           1 TRP       0.2216
     24 H9        -29.5188   -3.9798  -24.6698 H           1 TRP       0.0540
     25 H10       -29.4928   -4.0995  -19.7904 H           1 TRP       0.0541
     26 H11       -30.1216   -1.9982  -23.3965 H           1 TRP       0.0510
     27 H12       -30.1205   -2.0558  -20.9698 H           1 TRP       0.0530
@<TRIPOS>BOND
     1     2     1   1
     2     2     5   1
     3     2     3   1
     4     3     4  ar
     5     3    15  ar
     6     5     6   1
     7     6     7   2
     8     6     8   1
     9     8    11  ar
    10     8    10  ar
    11    10    12  ar
    12    10     9   1
    13     9     7   1
    14    12    14  ar
    15    14    13  ar
    16    13    11  ar
    17     1    16   1
    18     1    17   1
    19     1    18   1
    20     2    19   1
    21     5    20   1
    22     5    21   1
    23     7    22   1
    24     9    23   1
    25    11    24   1
    26    12    25   1
    27    13    26   1
    28    14    27   1
@<TRIPOS>SUBSTRUCTURE
     1  TRP      2

