@<TRIPOS>MOLECULE
3f3a_ligand_030
    27    28
SMALL
GAST_HUCK
****
This file was generated by PARSER (from files_GN.cpp)

@<TRIPOS>ATOM
      1 N         -27.1394   -6.8218  -26.8131 N.4         1 TRP       0.2336
      2 CA        -26.9499   -7.1745  -25.3978 C.3         1 TRP       0.0324
      3 C         -26.2229   -8.4592  -25.3044 C.2         1 TRP       0.0858
      4 O         -26.7466   -9.5430  -24.6863 O.co2       1 TRP      -0.5642
      5 CB        -28.3190   -7.0722  -24.6566 C.3         1 TRP       0.0190
      6 CG        -28.2247   -6.9316  -23.1826 C.2         1 TRP      -0.0392
      7 CD1       -28.9333   -7.6904  -22.2474 C.2         1 TRP       0.0167
      8 CD2       -27.4675   -6.0236  -22.4328 C.ar        1 TRP      -0.0213
      9 NE1       -28.6067   -7.2955  -21.0042 N.pl3       1 TRP      -0.2890
     10 CE2       -27.7113   -6.3022  -21.0847 C.ar        1 TRP       0.0603
     11 CE3       -26.5827   -4.9826  -22.7811 C.ar        1 TRP      -0.0747
     12 CZ2       -27.0661   -5.5900  -20.0567 C.ar        1 TRP      -0.0443
     13 CZ3       -25.8847   -4.2980  -21.7674 C.ar        1 TRP      -0.0792
     14 CH2       -26.1277   -4.5991  -20.4118 C.ar        1 TRP      -0.0768
     15 OXT       -24.9088   -8.4878  -25.6329 O.co2       1 TRP      -0.5642
     16 H1        -27.6433   -5.9324  -26.8871 H           1 TRP       0.2011
     17 H2        -27.6770   -7.5589  -27.2756 H           1 TRP       0.2011
     18 H3        -26.2328   -6.7188  -27.2735 H           1 TRP       0.2011
     19 H4        -26.2769   -6.4344  -24.9966 H           1 TRP       0.1040
     20 H5        -28.9295   -7.9479  -24.9066 H           1 TRP       0.0423
     21 H6        -28.8489   -6.1894  -25.0189 H           1 TRP       0.0423
     22 H7        -29.6017   -8.4306  -22.4598 H           1 TRP       0.0795
     23 H8        -28.9565   -7.6697  -20.1775 H           1 TRP       0.2216
     24 H9        -26.4412   -4.7007  -23.7470 H           1 TRP       0.0540
     25 H10       -27.2644   -5.8006  -19.0756 H           1 TRP       0.0541
     26 H11       -25.2061   -3.5757  -22.0190 H           1 TRP       0.0510
     27 H12       -25.6280   -4.0916  -19.6799 H           1 TRP       0.0530
@<TRIPOS>BOND
     1     2     1   1
     2     2     5   1
     3     2     3   1
     4     3     4  ar
     5     3    15  ar
     6     5     6   1
     7     6     7   2
     8     6     8   1
     9     8    11  ar
    10     8    10  ar
    11    10    12  ar
    12    10     9   1
    13     9     7   1
    14    12    14  ar
    15    14    13  ar
    16    13    11  ar
    17     1    16   1
    18     1    17   1
    19     1    18   1
    20     2    19   1
    21     5    20   1
    22     5    21   1
    23     7    22   1
    24     9    23   1
    25    11    24   1
    26    12    25   1
    27    13    26   1
    28    14    27   1
@<TRIPOS>SUBSTRUCTURE
     1  TRP      2

