@<TRIPOS>MOLECULE
3f3a_ligand_012
    27    28
SMALL
GAST_HUCK
****
This file was generated by PARSER (from files_GN.cpp)

@<TRIPOS>ATOM
      1 N         -25.2815   -3.5897  -19.5003 N.4         1 TRP       0.2336
      2 CA        -26.1181   -4.5986  -20.1586 C.3         1 TRP       0.0324
      3 C         -25.8656   -4.5208  -21.6083 C.2         1 TRP       0.0858
      4 O         -26.2627   -3.4435  -22.3418 O.co2       1 TRP      -0.5642
      5 CB        -27.6336   -4.4691  -19.7899 C.3         1 TRP       0.0190
      6 CG        -28.3146   -3.2720  -20.3360 C.2         1 TRP      -0.0392
      7 CD1       -28.1165   -1.9563  -19.9175 C.2         1 TRP       0.0167
      8 CD2       -29.2507   -3.1997  -21.3763 C.ar        1 TRP      -0.0213
      9 NE1       -28.8502   -1.1237  -20.6717 N.pl3       1 TRP      -0.2890
     10 CE2       -29.5503   -1.8455  -21.5612 C.ar        1 TRP       0.0603
     11 CE3       -29.8312   -4.1819  -22.2018 C.ar        1 TRP      -0.0747
     12 CZ2       -30.4325   -1.4307  -22.5784 C.ar        1 TRP      -0.0443
     13 CZ3       -30.7197   -3.7769  -23.2191 C.ar        1 TRP      -0.0792
     14 CH2       -31.0175   -2.4070  -23.4052 C.ar        1 TRP      -0.0768
     15 OXT       -24.9940   -5.3720  -22.2073 O.co2       1 TRP      -0.5642
     16 H1        -25.4052   -3.6001  -18.4886 H           1 TRP       0.2011
     17 H2        -25.5217   -2.6595  -19.8583 H           1 TRP       0.2011
     18 H3        -24.2994   -3.7707  -19.7261 H           1 TRP       0.2011
     19 H4        -25.7763   -5.5693  -19.7988 H           1 TRP       0.1040
     20 H5        -27.7324   -4.4503  -18.7000 H           1 TRP       0.0423
     21 H6        -28.1433   -5.3672  -20.1372 H           1 TRP       0.0423
     22 H7        -27.4891   -1.6646  -19.1713 H           1 TRP       0.0795
     23 H8        -28.8698   -0.1533  -20.5926 H           1 TRP       0.2216
     24 H9        -29.6154   -5.1715  -22.0681 H           1 TRP       0.0540
     25 H10       -30.6348   -0.4384  -22.7084 H           1 TRP       0.0541
     26 H11       -31.1443   -4.4756  -23.8252 H           1 TRP       0.0510
     27 H12       -31.6501   -2.1278  -24.1565 H           1 TRP       0.0530
@<TRIPOS>BOND
     1     2     1   1
     2     2     5   1
     3     2     3   1
     4     3     4  ar
     5     3    15  ar
     6     5     6   1
     7     6     7   2
     8     6     8   1
     9     8    11  ar
    10     8    10  ar
    11    10    12  ar
    12    10     9   1
    13     9     7   1
    14    12    14  ar
    15    14    13  ar
    16    13    11  ar
    17     1    16   1
    18     1    17   1
    19     1    18   1
    20     2    19   1
    21     5    20   1
    22     5    21   1
    23     7    22   1
    24     9    23   1
    25    11    24   1
    26    12    25   1
    27    13    26   1
    28    14    27   1
@<TRIPOS>SUBSTRUCTURE
     1  TRP      2

