@<TRIPOS>MOLECULE
3f3a_ligand_058
    27    28
SMALL
GAST_HUCK
****
This file was generated by PARSER (from files_GN.cpp)

@<TRIPOS>ATOM
      1 N         -24.3330   -5.2017  -16.8673 N.4         1 TRP       0.2336
      2 CA        -25.0709   -5.2232  -18.1404 C.3         1 TRP       0.0324
      3 C         -24.7041   -4.0183  -18.9069 C.2         1 TRP       0.0858
      4 O         -24.7164   -2.7968  -18.3286 O.co2       1 TRP      -0.5642
      5 CB        -26.5961   -5.3517  -17.8805 C.3         1 TRP       0.0190
      6 CG        -27.4078   -5.4477  -19.1124 C.2         1 TRP      -0.0392
      7 CD1       -27.7077   -6.6187  -19.8099 C.2         1 TRP       0.0167
      8 CD2       -27.9990   -4.4069  -19.8285 C.ar        1 TRP      -0.0213
      9 NE1       -28.4466   -6.3121  -20.8890 N.pl3       1 TRP      -0.2890
     10 CE2       -28.6354   -4.9852  -20.9292 C.ar        1 TRP       0.0603
     11 CE3       -28.0389   -3.0145  -19.6254 C.ar        1 TRP      -0.0747
     12 CZ2       -29.3349   -4.1979  -21.8600 C.ar        1 TRP      -0.0443
     13 CZ3       -28.7370   -2.2132  -20.5526 C.ar        1 TRP      -0.0792
     14 CH2       -29.3811   -2.8023  -21.6635 C.ar        1 TRP      -0.0768
     15 OXT       -24.5555   -4.1007  -20.2461 O.co2       1 TRP      -0.5642
     16 H1        -24.5029   -6.0675  -16.3467 H           1 TRP       0.2011
     17 H2        -24.6452   -4.3892  -16.3341 H           1 TRP       0.2011
     18 H3        -23.3275   -5.1046  -17.0264 H           1 TRP       0.2011
     19 H4        -24.7297   -6.1016  -18.6907 H           1 TRP       0.1040
     20 H5        -26.9366   -4.4974  -17.2964 H           1 TRP       0.0423
     21 H6        -26.7638   -6.2463  -17.2780 H           1 TRP       0.0423
     22 H7        -27.4250   -7.5619  -19.5409 H           1 TRP       0.0795
     23 H8        -28.7865   -6.9501  -21.5357 H           1 TRP       0.2216
     24 H9        -27.5774   -2.5865  -18.8210 H           1 TRP       0.0540
     25 H10       -29.7964   -4.6295  -22.6624 H           1 TRP       0.0541
     26 H11       -28.7816   -1.2020  -20.4129 H           1 TRP       0.0510
     27 H12       -29.8881   -2.2138  -22.3281 H           1 TRP       0.0530
@<TRIPOS>BOND
     1     2     1   1
     2     2     5   1
     3     2     3   1
     4     3     4  ar
     5     3    15  ar
     6     5     6   1
     7     6     7   2
     8     6     8   1
     9     8    11  ar
    10     8    10  ar
    11    10    12  ar
    12    10     9   1
    13     9     7   1
    14    12    14  ar
    15    14    13  ar
    16    13    11  ar
    17     1    16   1
    18     1    17   1
    19     1    18   1
    20     2    19   1
    21     5    20   1
    22     5    21   1
    23     7    22   1
    24     9    23   1
    25    11    24   1
    26    12    25   1
    27    13    26   1
    28    14    27   1
@<TRIPOS>SUBSTRUCTURE
     1  TRP      2

