@<TRIPOS>MOLECULE
3f3a_ligand_004
    27    28
SMALL
GAST_HUCK
****
This file was generated by PARSER (from files_GN.cpp)

@<TRIPOS>ATOM
      1 N         -24.7144   -4.6310  -18.6056 N.4         1 TRP       0.2336
      2 CA        -25.9838   -4.5966  -19.3530 C.3         1 TRP       0.0324
      3 C         -27.1076   -4.9265  -18.4501 C.2         1 TRP       0.0858
      4 O         -28.1528   -4.0809  -18.3010 O.co2       1 TRP      -0.5642
      5 CB        -25.9210   -5.5454  -20.5904 C.3         1 TRP       0.0190
      6 CG        -26.5585   -4.9757  -21.7996 C.2         1 TRP      -0.0392
      7 CD1       -26.1307   -3.8027  -22.4308 C.2         1 TRP       0.0167
      8 CD2       -27.5931   -5.4822  -22.5952 C.ar        1 TRP      -0.0213
      9 NE1       -26.8591   -3.5988  -23.5377 N.pl3       1 TRP      -0.2890
     10 CE2       -27.7438   -4.5981  -23.6675 C.ar        1 TRP       0.0603
     11 CE3       -28.4090   -6.6266  -22.5095 C.ar        1 TRP      -0.0747
     12 CZ2       -28.6942   -4.8167  -24.6793 C.ar        1 TRP      -0.0443
     13 CZ3       -29.3689   -6.8610  -23.5192 C.ar        1 TRP      -0.0792
     14 CH2       -29.5089   -5.9645  -24.6010 C.ar        1 TRP      -0.0768
     15 OXT       -27.1365   -6.1163  -17.8015 O.co2       1 TRP      -0.5642
     16 H1        -23.9548   -4.3660  -19.2380 H           1 TRP       0.2011
     17 H2        -24.5503   -5.5725  -18.2455 H           1 TRP       0.2011
     18 H3        -24.7467   -3.9706  -17.8255 H           1 TRP       0.2011
     19 H4        -26.1062   -3.5665  -19.6807 H           1 TRP       0.1040
     20 H5        -26.3815   -6.5045  -20.3506 H           1 TRP       0.0423
     21 H6        -24.8809   -5.7579  -20.8424 H           1 TRP       0.0423
     22 H7        -25.3645   -3.2042  -22.1156 H           1 TRP       0.0795
     23 H8        -26.7452   -2.8518  -24.1463 H           1 TRP       0.2216
     24 H9        -28.3145   -7.2792  -21.7296 H           1 TRP       0.0540
     25 H10       -28.7803   -4.1688  -25.4608 H           1 TRP       0.0541
     26 H11       -29.9734   -7.6855  -23.4621 H           1 TRP       0.0510
     27 H12       -30.1966   -6.1517  -25.3289 H           1 TRP       0.0530
@<TRIPOS>BOND
     1     2     1   1
     2     2     5   1
     3     2     3   1
     4     3     4  ar
     5     3    15  ar
     6     5     6   1
     7     6     7   2
     8     6     8   1
     9     8    11  ar
    10     8    10  ar
    11    10    12  ar
    12    10     9   1
    13     9     7   1
    14    12    14  ar
    15    14    13  ar
    16    13    11  ar
    17     1    16   1
    18     1    17   1
    19     1    18   1
    20     2    19   1
    21     5    20   1
    22     5    21   1
    23     7    22   1
    24     9    23   1
    25    11    24   1
    26    12    25   1
    27    13    26   1
    28    14    27   1
@<TRIPOS>SUBSTRUCTURE
     1  TRP      2

