@<TRIPOS>MOLECULE
3f3a_ligand_025
    27    28
SMALL
GAST_HUCK
****
This file was generated by PARSER (from files_GN.cpp)

@<TRIPOS>ATOM
      1 N         -25.6155  -10.6627  -26.8234 N.4         1 TRP       0.2336
      2 CA        -25.0261  -10.5501  -25.4713 C.3         1 TRP       0.0324
      3 C         -23.7722  -11.3248  -25.4147 C.2         1 TRP       0.0858
      4 O         -23.8010  -12.6815  -25.4389 O.co2       1 TRP      -0.5642
      5 CB        -26.0183  -10.9982  -24.3636 C.3         1 TRP       0.0190
      6 CG        -27.3871  -10.4389  -24.5239 C.2         1 TRP      -0.0392
      7 CD1       -27.7281   -9.0893  -24.6130 C.2         1 TRP       0.0167
      8 CD2       -28.5942  -11.1339  -24.5852 C.ar        1 TRP      -0.0213
      9 NE1       -29.0556   -8.9634  -24.7538 N.pl3       1 TRP      -0.2890
     10 CE2       -29.6100  -10.1851  -24.7350 C.ar        1 TRP       0.0603
     11 CE3       -28.9112  -12.5088  -24.5436 C.ar        1 TRP      -0.0747
     12 CZ2       -30.9622  -10.5676  -24.8220 C.ar        1 TRP      -0.0443
     13 CZ3       -30.2632  -12.9049  -24.6188 C.ar        1 TRP      -0.0792
     14 CH2       -31.2828  -11.9365  -24.7502 C.ar        1 TRP      -0.0768
     15 OXT       -22.5694  -10.6945  -25.5270 O.co2       1 TRP      -0.5642
     16 H1        -26.4489  -10.0718  -26.8729 H           1 TRP       0.2011
     17 H2        -25.8857  -11.6367  -27.0146 H           1 TRP       0.2011
     18 H3        -24.9462  -10.3526  -27.5338 H           1 TRP       0.2011
     19 H4        -24.7972   -9.4899  -25.3218 H           1 TRP       0.1040
     20 H5        -25.6351  -10.6734  -23.3942 H           1 TRP       0.0423
     21 H6        -26.0696  -12.0880  -24.3396 H           1 TRP       0.0423
     22 H7        -27.0751   -8.3023  -24.5873 H           1 TRP       0.0795
     23 H8        -29.5470   -8.1288  -24.8381 H           1 TRP       0.2216
     24 H9        -28.1815  -13.2147  -24.4406 H           1 TRP       0.0540
     25 H10       -31.6935   -9.8558  -24.9234 H           1 TRP       0.0541
     26 H11       -30.5079  -13.8941  -24.5730 H           1 TRP       0.0510
     27 H12       -32.2634  -12.2289  -24.7999 H           1 TRP       0.0530
@<TRIPOS>BOND
     1     2     1   1
     2     2     5   1
     3     2     3   1
     4     3     4  ar
     5     3    15  ar
     6     5     6   1
     7     6     7   2
     8     6     8   1
     9     8    11  ar
    10     8    10  ar
    11    10    12  ar
    12    10     9   1
    13     9     7   1
    14    12    14  ar
    15    14    13  ar
    16    13    11  ar
    17     1    16   1
    18     1    17   1
    19     1    18   1
    20     2    19   1
    21     5    20   1
    22     5    21   1
    23     7    22   1
    24     9    23   1
    25    11    24   1
    26    12    25   1
    27    13    26   1
    28    14    27   1
@<TRIPOS>SUBSTRUCTURE
     1  TRP      2

