@<TRIPOS>MOLECULE
3f3a_ligand_006
    27    28
SMALL
GAST_HUCK
****
This file was generated by PARSER (from files_GN.cpp)

@<TRIPOS>ATOM
      1 N         -29.7567    0.6432  -22.3992 N.4         1 TRP       0.2336
      2 CA        -29.1418   -0.6641  -22.6879 C.3         1 TRP       0.0324
      3 C         -30.0586   -1.4753  -23.5175 C.2         1 TRP       0.0858
      4 O         -29.6653   -1.9601  -24.7220 O.co2       1 TRP      -0.5642
      5 CB        -28.7535   -1.4040  -21.3728 C.3         1 TRP       0.0190
      6 CG        -27.7315   -2.4771  -21.5265 C.2         1 TRP      -0.0392
      7 CD1       -26.6636   -2.4972  -22.4322 C.2         1 TRP       0.0167
      8 CD2       -27.5652   -3.6242  -20.7436 C.ar        1 TRP      -0.0213
      9 NE1       -25.9013   -3.5808  -22.2202 N.pl3       1 TRP      -0.2890
     10 CE2       -26.4201   -4.2853  -21.2055 C.ar        1 TRP       0.0603
     11 CE3       -28.2887   -4.1428  -19.6505 C.ar        1 TRP      -0.0747
     12 CZ2       -25.9664   -5.4730  -20.6036 C.ar        1 TRP      -0.0443
     13 CZ3       -27.8486   -5.3366  -19.0422 C.ar        1 TRP      -0.0792
     14 CH2       -26.6967   -6.0006  -19.5186 C.ar        1 TRP      -0.0768
     15 OXT       -31.2834   -1.8134  -23.0535 O.co2       1 TRP      -0.5642
     16 H1        -29.1361    1.2051  -21.8195 H           1 TRP       0.2011
     17 H2        -30.6390    0.5208  -21.9055 H           1 TRP       0.2011
     18 H3        -29.9294    1.1510  -23.2684 H           1 TRP       0.2011
     19 H4        -28.2441   -0.4446  -23.2662 H           1 TRP       0.1040
     20 H5        -29.6492   -1.8308  -20.9174 H           1 TRP       0.0423
     21 H6        -28.3575   -0.6717  -20.6716 H           1 TRP       0.0423
     22 H7        -26.4568   -1.7917  -23.1415 H           1 TRP       0.0795
     23 H8        -25.0917   -3.7909  -22.7098 H           1 TRP       0.2216
     24 H9        -29.1136   -3.6562  -19.2950 H           1 TRP       0.0540
     25 H10       -25.1166   -5.9311  -20.9388 H           1 TRP       0.0541
     26 H11       -28.3608   -5.7177  -18.2469 H           1 TRP       0.0510
     27 H12       -26.3849   -6.8645  -19.0707 H           1 TRP       0.0530
@<TRIPOS>BOND
     1     2     1   1
     2     2     5   1
     3     2     3   1
     4     3     4  ar
     5     3    15  ar
     6     5     6   1
     7     6     7   2
     8     6     8   1
     9     8    11  ar
    10     8    10  ar
    11    10    12  ar
    12    10     9   1
    13     9     7   1
    14    12    14  ar
    15    14    13  ar
    16    13    11  ar
    17     1    16   1
    18     1    17   1
    19     1    18   1
    20     2    19   1
    21     5    20   1
    22     5    21   1
    23     7    22   1
    24     9    23   1
    25    11    24   1
    26    12    25   1
    27    13    26   1
    28    14    27   1
@<TRIPOS>SUBSTRUCTURE
     1  TRP      2

