@<TRIPOS>MOLECULE
3f3a_ligand_010
    27    28
SMALL
GAST_HUCK
****
This file was generated by PARSER (from files_GN.cpp)

@<TRIPOS>ATOM
      1 N         -25.3315   -3.6191  -19.4117 N.4         1 TRP       0.2336
      2 CA        -26.3057   -4.6940  -19.6616 C.3         1 TRP       0.0324
      3 C         -26.0993   -5.6902  -18.5924 C.2         1 TRP       0.0858
      4 O         -27.1395   -6.1283  -17.8516 O.co2       1 TRP      -0.5642
      5 CB        -26.1569   -5.2685  -21.1047 C.3         1 TRP       0.0190
      6 CG        -27.3425   -5.9974  -21.6396 C.2         1 TRP      -0.0392
      7 CD1       -27.9613   -5.7094  -22.8600 C.2         1 TRP       0.0167
      8 CD2       -28.0721   -7.0613  -21.0869 C.ar        1 TRP      -0.0213
      9 NE1       -29.0136   -6.5238  -23.0329 N.pl3       1 TRP      -0.2890
     10 CE2       -29.1137   -7.3390  -21.9774 C.ar        1 TRP       0.0603
     11 CE3       -27.9415   -7.8179  -19.9074 C.ar        1 TRP      -0.0747
     12 CZ2       -30.0885   -8.3157  -21.6850 C.ar        1 TRP      -0.0443
     13 CZ3       -28.9145   -8.7918  -19.5956 C.ar        1 TRP      -0.0792
     14 CH2       -29.9997   -9.0199  -20.4693 C.ar        1 TRP      -0.0768
     15 OXT       -24.8698   -6.2167  -18.3637 O.co2       1 TRP      -0.5642
     16 H1        -25.5408   -2.8222  -20.0109 H           1 TRP       0.2011
     17 H2        -24.3883   -3.9474  -19.6179 H           1 TRP       0.2011
     18 H3        -25.3808   -3.3214  -18.4356 H           1 TRP       0.2011
     19 H4        -27.2991   -4.2472  -19.5518 H           1 TRP       0.1040
     20 H5        -25.2766   -5.9125  -21.1666 H           1 TRP       0.0423
     21 H6        -25.9534   -4.4187  -21.7655 H           1 TRP       0.0423
     22 H7        -27.6774   -4.9887  -23.5220 H           1 TRP       0.0795
     23 H8        -29.6160   -6.5085  -23.7924 H           1 TRP       0.2216
     24 H9        -27.1530   -7.6961  -19.2817 H           1 TRP       0.0540
     25 H10       -30.8631   -8.4813  -22.3352 H           1 TRP       0.0541
     26 H11       -28.8429   -9.3334  -18.7342 H           1 TRP       0.0510
     27 H12       -30.7211   -9.7065  -20.2240 H           1 TRP       0.0530
@<TRIPOS>BOND
     1     2     1   1
     2     2     5   1
     3     2     3   1
     4     3     4  ar
     5     3    15  ar
     6     5     6   1
     7     6     7   2
     8     6     8   1
     9     8    11  ar
    10     8    10  ar
    11    10    12  ar
    12    10     9   1
    13     9     7   1
    14    12    14  ar
    15    14    13  ar
    16    13    11  ar
    17     1    16   1
    18     1    17   1
    19     1    18   1
    20     2    19   1
    21     5    20   1
    22     5    21   1
    23     7    22   1
    24     9    23   1
    25    11    24   1
    26    12    25   1
    27    13    26   1
    28    14    27   1
@<TRIPOS>SUBSTRUCTURE
     1  TRP      2

