@<TRIPOS>MOLECULE
3f3a_ligand_031
    27    28
SMALL
GAST_HUCK
****
This file was generated by PARSER (from files_GN.cpp)

@<TRIPOS>ATOM
      1 N         -25.4446   -9.6528  -26.8488 N.4         1 TRP       0.2336
      2 CA        -24.7920  -10.2626  -25.6790 C.3         1 TRP       0.0324
      3 C         -23.5922   -9.5045  -25.2593 C.2         1 TRP       0.0858
      4 O         -22.9245   -9.8824  -24.1445 O.co2       1 TRP      -0.5642
      5 CB        -24.4795  -11.7608  -25.9529 C.3         1 TRP       0.0190
      6 CG        -23.3749  -12.0087  -26.9153 C.2         1 TRP      -0.0392
      7 CD1       -22.0093  -11.8229  -26.6596 C.2         1 TRP       0.0167
      8 CD2       -23.4487  -12.5495  -28.1982 C.ar        1 TRP      -0.0213
      9 NE1       -21.2971  -12.2519  -27.7136 N.pl3       1 TRP      -0.2890
     10 CE2       -22.1373  -12.7051  -28.6563 C.ar        1 TRP       0.0603
     11 CE3       -24.5333  -12.9237  -29.0188 C.ar        1 TRP      -0.0747
     12 CZ2       -21.8592  -13.2699  -29.9134 C.ar        1 TRP      -0.0443
     13 CZ3       -24.2704  -13.4630  -30.2965 C.ar        1 TRP      -0.0792
     14 CH2       -22.9403  -13.6484  -30.7369 C.ar        1 TRP      -0.0768
     15 OXT       -23.0826   -8.5017  -26.0115 O.co2       1 TRP      -0.5642
     16 H1        -26.3693  -10.0644  -26.9880 H           1 TRP       0.2011
     17 H2        -24.8852   -9.8074  -27.6887 H           1 TRP       0.2011
     18 H3        -25.5546   -8.6491  -26.6928 H           1 TRP       0.2011
     19 H4        -25.5184  -10.2091  -24.8615 H           1 TRP       0.1040
     20 H5        -25.3943  -12.2462  -26.3050 H           1 TRP       0.0423
     21 H6        -24.2179  -12.2511  -25.0105 H           1 TRP       0.0423
     22 H7        -21.6137  -11.4406  -25.7974 H           1 TRP       0.0795
     23 H8        -20.3281  -12.2449  -27.7816 H           1 TRP       0.2216
     24 H9        -25.4964  -12.7963  -28.7030 H           1 TRP       0.0540
     25 H10       -20.8942  -13.4076  -30.2214 H           1 TRP       0.0541
     26 H11       -25.0502  -13.7288  -30.9048 H           1 TRP       0.0510
     27 H12       -22.7612  -14.0537  -31.6605 H           1 TRP       0.0530
@<TRIPOS>BOND
     1     2     1   1
     2     2     5   1
     3     2     3   1
     4     3     4  ar
     5     3    15  ar
     6     5     6   1
     7     6     7   2
     8     6     8   1
     9     8    11  ar
    10     8    10  ar
    11    10    12  ar
    12    10     9   1
    13     9     7   1
    14    12    14  ar
    15    14    13  ar
    16    13    11  ar
    17     1    16   1
    18     1    17   1
    19     1    18   1
    20     2    19   1
    21     5    20   1
    22     5    21   1
    23     7    22   1
    24     9    23   1
    25    11    24   1
    26    12    25   1
    27    13    26   1
    28    14    27   1
@<TRIPOS>SUBSTRUCTURE
     1  TRP      2

