@<TRIPOS>MOLECULE
3f3a_ligand_035
    27    28
SMALL
GAST_HUCK
****
This file was generated by PARSER (from files_GN.cpp)

@<TRIPOS>ATOM
      1 N         -25.5266   -9.6500  -26.7155 N.4         1 TRP       0.2336
      2 CA        -24.9570  -10.2634  -25.5007 C.3         1 TRP       0.0324
      3 C         -23.5647   -9.7929  -25.2758 C.2         1 TRP       0.0858
      4 O         -22.9919   -8.8187  -26.0373 O.co2       1 TRP      -0.5642
      5 CB        -25.0421  -11.8199  -25.5955 C.3         1 TRP       0.0190
      6 CG        -26.2093  -12.3838  -24.8819 C.2         1 TRP      -0.0392
      7 CD1       -27.1530  -13.2671  -25.4013 C.2         1 TRP       0.0167
      8 CD2       -26.5317  -12.2294  -23.5336 C.ar        1 TRP      -0.0213
      9 NE1       -28.0185  -13.6197  -24.4376 N.pl3       1 TRP      -0.2890
     10 CE2       -27.6637  -13.0183  -23.2921 C.ar        1 TRP       0.0603
     11 CE3       -25.9341  -11.4967  -22.4867 C.ar        1 TRP      -0.0747
     12 CZ2       -28.2322  -13.1015  -22.0096 C.ar        1 TRP      -0.0443
     13 CZ3       -26.4996  -11.5688  -21.1964 C.ar        1 TRP      -0.0792
     14 CH2       -27.6439  -12.3654  -20.9605 C.ar        1 TRP      -0.0768
     15 OXT       -22.9259  -10.1313  -24.1266 O.co2       1 TRP      -0.5642
     16 H1        -26.4806   -9.9760  -26.8698 H           1 TRP       0.2011
     17 H2        -24.9594   -9.8879  -27.5377 H           1 TRP       0.2011
     18 H3        -25.5375   -8.6324  -26.6014 H           1 TRP       0.2011
     19 H4        -25.5484   -9.8997  -24.6545 H           1 TRP       0.1040
     20 H5        -24.1554  -12.2862  -25.1568 H           1 TRP       0.0423
     21 H6        -25.0829  -12.1137  -26.6509 H           1 TRP       0.0423
     22 H7        -27.1843  -13.6120  -26.3680 H           1 TRP       0.0795
     23 H8        -28.7645  -14.2277  -24.5491 H           1 TRP       0.2216
     24 H9        -25.1161  -10.9125  -22.6637 H           1 TRP       0.0540
     25 H10       -29.0603  -13.6735  -21.8498 H           1 TRP       0.0541
     26 H11       -26.0773  -11.0409  -20.4264 H           1 TRP       0.0510
     27 H12       -28.0443  -12.4143  -20.0211 H           1 TRP       0.0530
@<TRIPOS>BOND
     1     2     1   1
     2     2     5   1
     3     2     3   1
     4     3     4  ar
     5     3    15  ar
     6     5     6   1
     7     6     7   2
     8     6     8   1
     9     8    11  ar
    10     8    10  ar
    11    10    12  ar
    12    10     9   1
    13     9     7   1
    14    12    14  ar
    15    14    13  ar
    16    13    11  ar
    17     1    16   1
    18     1    17   1
    19     1    18   1
    20     2    19   1
    21     5    20   1
    22     5    21   1
    23     7    22   1
    24     9    23   1
    25    11    24   1
    26    12    25   1
    27    13    26   1
    28    14    27   1
@<TRIPOS>SUBSTRUCTURE
     1  TRP      2

