@<TRIPOS>MOLECULE
3f3a_ligand_047
    27    28
SMALL
GAST_HUCK
****
This file was generated by PARSER (from files_GN.cpp)

@<TRIPOS>ATOM
      1 N         -27.8361   -3.1213  -18.4211 N.4         1 TRP       0.2336
      2 CA        -27.5235   -3.1514  -19.8549 C.3         1 TRP       0.0324
      3 C         -28.3124   -2.1036  -20.5446 C.2         1 TRP       0.0858
      4 O         -29.6116   -2.3109  -20.8564 O.co2       1 TRP      -0.5642
      5 CB        -27.7691   -4.5837  -20.4232 C.3         1 TRP       0.0190
      6 CG        -27.0904   -4.8890  -21.7053 C.2         1 TRP      -0.0392
      7 CD1       -25.8129   -4.4611  -22.0690 C.2         1 TRP       0.0167
      8 CD2       -27.4959   -5.7640  -22.7197 C.ar        1 TRP      -0.0213
      9 NE1       -25.4680   -4.9980  -23.2520 N.pl3       1 TRP      -0.2890
     10 CE2       -26.4623   -5.8058  -23.6606 C.ar        1 TRP       0.0603
     11 CE3       -28.6453   -6.5631  -22.8872 C.ar        1 TRP      -0.0747
     12 CZ2       -26.5272   -6.6517  -24.7841 C.ar        1 TRP      -0.0443
     13 CZ3       -28.7241   -7.4165  -24.0143 C.ar        1 TRP      -0.0792
     14 CH2       -27.6679   -7.4623  -24.9534 C.ar        1 TRP      -0.0768
     15 OXT       -27.8790   -0.8158  -20.4979 O.co2       1 TRP      -0.5642
     16 H1        -27.3096   -3.8509  -17.9396 H           1 TRP       0.2011
     17 H2        -28.8359   -3.2750  -18.2778 H           1 TRP       0.2011
     18 H3        -27.5669   -2.2111  -18.0495 H           1 TRP       0.2011
     19 H4        -26.4653   -2.9129  -19.9370 H           1 TRP       0.1040
     20 H5        -28.8501   -4.7474  -20.5237 H           1 TRP       0.0423
     21 H6        -27.4002   -5.3203  -19.6951 H           1 TRP       0.0423
     22 H7        -25.2188   -3.8462  -21.5126 H           1 TRP       0.0795
     23 H8        -24.6263   -4.8612  -23.7198 H           1 TRP       0.2216
     24 H9        -29.4025   -6.5470  -22.1967 H           1 TRP       0.0540
     25 H10       -25.7543   -6.6966  -25.4490 H           1 TRP       0.0541
     26 H11       -29.5544   -8.0005  -24.1497 H           1 TRP       0.0510
     27 H12       -27.7305   -8.0825  -25.7631 H           1 TRP       0.0530
@<TRIPOS>BOND
     1     2     1   1
     2     2     5   1
     3     2     3   1
     4     3     4  ar
     5     3    15  ar
     6     5     6   1
     7     6     7   2
     8     6     8   1
     9     8    11  ar
    10     8    10  ar
    11    10    12  ar
    12    10     9   1
    13     9     7   1
    14    12    14  ar
    15    14    13  ar
    16    13    11  ar
    17     1    16   1
    18     1    17   1
    19     1    18   1
    20     2    19   1
    21     5    20   1
    22     5    21   1
    23     7    22   1
    24     9    23   1
    25    11    24   1
    26    12    25   1
    27    13    26   1
    28    14    27   1
@<TRIPOS>SUBSTRUCTURE
     1  TRP      2

