@<TRIPOS>MOLECULE
3f3a_ligand_016
    27    28
SMALL
GAST_HUCK
****
This file was generated by PARSER (from files_GN.cpp)

@<TRIPOS>ATOM
      1 N         -29.6931    0.6116  -22.2237 N.4         1 TRP       0.2336
      2 CA        -29.0812   -0.7252  -22.2652 C.3         1 TRP       0.0324
      3 C         -28.1499   -0.7698  -23.4131 C.2         1 TRP       0.0858
      4 O         -28.3347   -1.6007  -24.4655 O.co2       1 TRP      -0.5642
      5 CB        -30.2005   -1.8067  -22.2483 C.3         1 TRP       0.0190
      6 CG        -29.7340   -3.1894  -21.9603 C.2         1 TRP      -0.0392
      7 CD1       -29.9774   -4.3103  -22.7538 C.2         1 TRP       0.0167
      8 CD2       -29.0038   -3.6552  -20.8655 C.ar        1 TRP      -0.0213
      9 NE1       -29.4208   -5.3954  -22.1907 N.pl3       1 TRP      -0.2890
     10 CE2       -28.8288   -5.0321  -21.0452 C.ar        1 TRP       0.0603
     11 CE3       -28.4767   -3.0153  -19.7244 C.ar        1 TRP      -0.0747
     12 CZ2       -28.1355   -5.8126  -20.1031 C.ar        1 TRP      -0.0443
     13 CZ3       -27.7703   -3.7845  -18.7755 C.ar        1 TRP      -0.0792
     14 CH2       -27.6087   -5.1736  -18.9586 C.ar        1 TRP      -0.0768
     15 OXT       -27.0660    0.0427  -23.4326 O.co2       1 TRP      -0.5642
     16 H1        -30.4884    0.6094  -21.5848 H           1 TRP       0.2011
     17 H2        -30.0089    0.8943  -23.1574 H           1 TRP       0.2011
     18 H3        -29.0018    1.2786  -21.8765 H           1 TRP       0.2011
     19 H4        -28.4867   -0.8206  -21.3581 H           1 TRP       0.1040
     20 H5        -30.7201   -1.7925  -23.2115 H           1 TRP       0.0423
     21 H6        -30.9361   -1.5465  -21.4834 H           1 TRP       0.0423
     22 H7        -30.4896   -4.3193  -23.6389 H           1 TRP       0.0795
     23 H8        -29.4516   -6.2920  -22.5520 H           1 TRP       0.2216
     24 H9        -28.6076   -2.0148  -19.5815 H           1 TRP       0.0540
     25 H10       -28.0307   -6.8190  -20.2331 H           1 TRP       0.0541
     26 H11       -27.3915   -3.3315  -17.9411 H           1 TRP       0.0510
     27 H12       -27.1190   -5.7282  -18.2495 H           1 TRP       0.0530
@<TRIPOS>BOND
     1     2     1   1
     2     2     5   1
     3     2     3   1
     4     3     4  ar
     5     3    15  ar
     6     5     6   1
     7     6     7   2
     8     6     8   1
     9     8    11  ar
    10     8    10  ar
    11    10    12  ar
    12    10     9   1
    13     9     7   1
    14    12    14  ar
    15    14    13  ar
    16    13    11  ar
    17     1    16   1
    18     1    17   1
    19     1    18   1
    20     2    19   1
    21     5    20   1
    22     5    21   1
    23     7    22   1
    24     9    23   1
    25    11    24   1
    26    12    25   1
    27    13    26   1
    28    14    27   1
@<TRIPOS>SUBSTRUCTURE
     1  TRP      2

