@<TRIPOS>MOLECULE
3f3a_ligand_054
    27    28
SMALL
GAST_HUCK
****
This file was generated by PARSER (from files_GN.cpp)

@<TRIPOS>ATOM
      1 N         -25.3460  -10.6137  -27.2453 N.4         1 TRP       0.2336
      2 CA        -24.5269   -9.4408  -26.8853 C.3         1 TRP       0.0324
      3 C         -23.1045   -9.7392  -27.1612 C.2         1 TRP       0.0858
      4 O         -22.5454  -10.9016  -26.7531 O.co2       1 TRP      -0.5642
      5 CB        -24.7725   -8.9119  -25.4338 C.3         1 TRP       0.0190
      6 CG        -25.6949   -9.7412  -24.6257 C.2         1 TRP      -0.0392
      7 CD1       -25.3568  -10.9127  -23.9476 C.2         1 TRP       0.0167
      8 CD2       -27.0710   -9.5826  -24.4612 C.ar        1 TRP      -0.0213
      9 NE1       -26.4609  -11.4378  -23.3894 N.pl3       1 TRP      -0.2890
     10 CE2       -27.5129  -10.6586  -23.6859 C.ar        1 TRP       0.0603
     11 CE3       -27.9800   -8.6130  -24.9286 C.ar        1 TRP      -0.0747
     12 CZ2       -28.8724  -10.8066  -23.3590 C.ar        1 TRP      -0.0443
     13 CZ3       -29.3475   -8.7561  -24.6141 C.ar        1 TRP      -0.0792
     14 CH2       -29.7909   -9.8460  -23.8310 C.ar        1 TRP      -0.0768
     15 OXT       -22.2942   -8.7696  -27.6447 O.co2       1 TRP      -0.5642
     16 H1        -26.3375  -10.3761  -27.1566 H           1 TRP       0.2011
     17 H2        -25.1238  -11.4024  -26.6331 H           1 TRP       0.2011
     18 H3        -25.1544  -10.8711  -28.2107 H           1 TRP       0.2011
     19 H4        -24.8303   -8.6543  -27.5827 H           1 TRP       0.1040
     20 H5        -25.1864   -7.9004  -25.4862 H           1 TRP       0.0423
     21 H6        -23.8287   -8.8232  -24.8865 H           1 TRP       0.0423
     22 H7        -24.4213  -11.3184  -23.9020 H           1 TRP       0.0795
     23 H8        -26.4954  -12.2620  -22.8766 H           1 TRP       0.2216
     24 H9        -27.6640   -7.8331  -25.5091 H           1 TRP       0.0540
     25 H10       -29.1886  -11.6040  -22.8031 H           1 TRP       0.0541
     26 H11       -30.0231   -8.0708  -24.9597 H           1 TRP       0.0510
     27 H12       -30.7854   -9.9435  -23.6136 H           1 TRP       0.0530
@<TRIPOS>BOND
     1     2     1   1
     2     2     5   1
     3     2     3   1
     4     3     4  ar
     5     3    15  ar
     6     5     6   1
     7     6     7   2
     8     6     8   1
     9     8    11  ar
    10     8    10  ar
    11    10    12  ar
    12    10     9   1
    13     9     7   1
    14    12    14  ar
    15    14    13  ar
    16    13    11  ar
    17     1    16   1
    18     1    17   1
    19     1    18   1
    20     2    19   1
    21     5    20   1
    22     5    21   1
    23     7    22   1
    24     9    23   1
    25    11    24   1
    26    12    25   1
    27    13    26   1
    28    14    27   1
@<TRIPOS>SUBSTRUCTURE
     1  TRP      2

