@<TRIPOS>MOLECULE
3f3a_ligand_027
    27    28
SMALL
GAST_HUCK
****
This file was generated by PARSER (from files_GN.cpp)

@<TRIPOS>ATOM
      1 N         -27.1962   -6.8707  -26.7376 N.4         1 TRP       0.2336
      2 CA        -26.7972   -7.1744  -25.3523 C.3         1 TRP       0.0324
      3 C         -25.6886   -8.1523  -25.4117 C.2         1 TRP       0.0858
      4 O         -24.4575   -7.7361  -25.7831 O.co2       1 TRP      -0.5642
      5 CB        -28.0308   -7.6504  -24.5273 C.3         1 TRP       0.0190
      6 CG        -28.9041   -6.5357  -24.0912 C.2         1 TRP      -0.0392
      7 CD1       -30.0211   -6.0397  -24.7664 C.2         1 TRP       0.0167
      8 CD2       -28.8136   -5.7974  -22.9100 C.ar        1 TRP      -0.0213
      9 NE1       -30.5771   -5.0554  -24.0401 N.pl3       1 TRP      -0.2890
     10 CE2       -29.8695   -4.8835  -22.9148 C.ar        1 TRP       0.0603
     11 CE3       -27.9235   -5.8482  -21.8199 C.ar        1 TRP      -0.0747
     12 CZ2       -30.0769   -3.9963  -21.8447 C.ar        1 TRP      -0.0443
     13 CZ3       -28.1187   -4.9653  -20.7372 C.ar        1 TRP      -0.0792
     14 CH2       -29.1895   -4.0437  -20.7491 C.ar        1 TRP      -0.0768
     15 OXT       -25.8231   -9.4424  -25.0248 O.co2       1 TRP      -0.5642
     16 H1        -27.9215   -6.1509  -26.7420 H           1 TRP       0.2011
     17 H2        -27.5615   -7.7210  -27.1754 H           1 TRP       0.2011
     18 H3        -26.3905   -6.5408  -27.2758 H           1 TRP       0.2011
     19 H4        -26.3994   -6.2625  -24.8991 H           1 TRP       0.1040
     20 H5        -27.7005   -8.1810  -23.6317 H           1 TRP       0.0423
     21 H6        -28.6156   -8.3630  -25.1167 H           1 TRP       0.0423
     22 H7        -30.3745   -6.3729  -25.6646 H           1 TRP       0.0795
     23 H8        -31.3770   -4.5618  -24.2770 H           1 TRP       0.2216
     24 H9        -27.1528   -6.5163  -21.8056 H           1 TRP       0.0540
     25 H10       -30.8603   -3.3400  -21.8551 H           1 TRP       0.0541
     26 H11       -27.4825   -4.9950  -19.9374 H           1 TRP       0.0510
     27 H12       -29.3229   -3.4088  -19.9590 H           1 TRP       0.0530
@<TRIPOS>BOND
     1     2     1   1
     2     2     5   1
     3     2     3   1
     4     3     4  ar
     5     3    15  ar
     6     5     6   1
     7     6     7   2
     8     6     8   1
     9     8    11  ar
    10     8    10  ar
    11    10    12  ar
    12    10     9   1
    13     9     7   1
    14    12    14  ar
    15    14    13  ar
    16    13    11  ar
    17     1    16   1
    18     1    17   1
    19     1    18   1
    20     2    19   1
    21     5    20   1
    22     5    21   1
    23     7    22   1
    24     9    23   1
    25    11    24   1
    26    12    25   1
    27    13    26   1
    28    14    27   1
@<TRIPOS>SUBSTRUCTURE
     1  TRP      2

