@<TRIPOS>MOLECULE
3f3a_ligand_060
    27    28
SMALL
GAST_HUCK
****
This file was generated by PARSER (from files_GN.cpp)

@<TRIPOS>ATOM
      1 N         -29.7891    0.7223  -21.7291 N.4         1 TRP       0.2336
      2 CA        -28.9863   -0.5063  -21.7531 C.3         1 TRP       0.0324
      3 C         -27.9266   -0.3863  -20.7358 C.2         1 TRP       0.0858
      4 O         -28.0342   -0.9985  -19.5371 O.co2       1 TRP      -0.5642
      5 CB        -28.4404   -0.7562  -23.1869 C.3         1 TRP       0.0190
      6 CG        -27.7654   -2.0673  -23.3318 C.2         1 TRP      -0.0392
      7 CD1       -26.4069   -2.3231  -23.1388 C.2         1 TRP       0.0167
      8 CD2       -28.3376   -3.2919  -23.6829 C.ar        1 TRP      -0.0213
      9 NE1       -26.1599   -3.6245  -23.3673 N.pl3       1 TRP      -0.2890
     10 CE2       -27.3065   -4.2364  -23.6977 C.ar        1 TRP       0.0603
     11 CE3       -29.6590   -3.6720  -23.9874 C.ar        1 TRP      -0.0747
     12 CZ2       -27.5547   -5.5817  -24.0206 C.ar        1 TRP      -0.0443
     13 CZ3       -29.9222   -5.0211  -24.3104 C.ar        1 TRP      -0.0792
     14 CH2       -28.8761   -5.9702  -24.3274 C.ar        1 TRP      -0.0768
     15 OXT       -26.9117    0.4847  -20.9169 O.co2       1 TRP      -0.5642
     16 H1        -30.5809    0.6208  -22.3684 H           1 TRP       0.2011
     17 H2        -29.2139    1.5155  -22.0209 H           1 TRP       0.2011
     18 H3        -30.1387    0.8829  -20.7818 H           1 TRP       0.2011
     19 H4        -29.6540   -1.3321  -21.4891 H           1 TRP       0.1040
     20 H5        -27.7537    0.0449  -23.4728 H           1 TRP       0.0423
     21 H6        -29.2711   -0.7242  -23.8966 H           1 TRP       0.0423
     22 H7        -25.7037   -1.6356  -22.8662 H           1 TRP       0.0795
     23 H8        -25.2932   -4.0548  -23.2953 H           1 TRP       0.2216
     24 H9        -30.4178   -2.9880  -23.9767 H           1 TRP       0.0540
     25 H10       -26.7940   -6.2645  -24.0298 H           1 TRP       0.0541
     26 H11       -30.8762   -5.3142  -24.5337 H           1 TRP       0.0510
     27 H12       -29.0787   -6.9442  -24.5653 H           1 TRP       0.0530
@<TRIPOS>BOND
     1     2     1   1
     2     2     5   1
     3     2     3   1
     4     3     4  ar
     5     3    15  ar
     6     5     6   1
     7     6     7   2
     8     6     8   1
     9     8    11  ar
    10     8    10  ar
    11    10    12  ar
    12    10     9   1
    13     9     7   1
    14    12    14  ar
    15    14    13  ar
    16    13    11  ar
    17     1    16   1
    18     1    17   1
    19     1    18   1
    20     2    19   1
    21     5    20   1
    22     5    21   1
    23     7    22   1
    24     9    23   1
    25    11    24   1
    26    12    25   1
    27    13    26   1
    28    14    27   1
@<TRIPOS>SUBSTRUCTURE
     1  TRP      2

