@<TRIPOS>MOLECULE
3f3a_ligand_040
    27    28
SMALL
GAST_HUCK
****
This file was generated by PARSER (from files_GN.cpp)

@<TRIPOS>ATOM
      1 N         -26.7056   -7.2952  -26.9440 N.4         1 TRP       0.2336
      2 CA        -26.7104   -7.2434  -25.4714 C.3         1 TRP       0.0324
      3 C         -26.5787   -8.6358  -24.9678 C.2         1 TRP       0.0858
      4 O         -27.5410   -9.2677  -24.2561 O.co2       1 TRP      -0.5642
      5 CB        -27.9375   -6.4054  -24.9376 C.3         1 TRP       0.0190
      6 CG        -27.6654   -5.3466  -23.9236 C.2         1 TRP      -0.0392
      7 CD1       -26.4502   -4.9238  -23.3576 C.2         1 TRP       0.0167
      8 CD2       -28.6399   -4.4983  -23.3724 C.ar        1 TRP      -0.0213
      9 NE1       -26.6678   -3.8809  -22.5444 N.pl3       1 TRP      -0.2890
     10 CE2       -27.9760   -3.6028  -22.5287 C.ar        1 TRP       0.0603
     11 CE3       -30.0390   -4.4018  -23.5334 C.ar        1 TRP      -0.0747
     12 CZ2       -28.6566   -2.5911  -21.8358 C.ar        1 TRP      -0.0443
     13 CZ3       -30.7434   -3.3853  -22.8466 C.ar        1 TRP      -0.0792
     14 CH2       -30.0544   -2.4875  -22.0036 C.ar        1 TRP      -0.0768
     15 OXT       -25.4389   -9.3219  -25.2204 O.co2       1 TRP      -0.5642
     16 H1        -26.8072   -6.3460  -27.3102 H           1 TRP       0.2011
     17 H2        -27.4588   -7.8880  -27.2843 H           1 TRP       0.2011
     18 H3        -25.8072   -7.6722  -27.2596 H           1 TRP       0.2011
     19 H4        -25.7781   -6.7340  -25.2227 H           1 TRP       0.1040
     20 H5        -28.6975   -7.0624  -24.5200 H           1 TRP       0.0423
     21 H6        -28.4075   -5.9005  -25.7831 H           1 TRP       0.0423
     22 H7        -25.5249   -5.3101  -23.5315 H           1 TRP       0.0795
     23 H8        -25.9860   -3.3915  -22.0603 H           1 TRP       0.2216
     24 H9        -30.5437   -5.0486  -24.1481 H           1 TRP       0.0540
     25 H10       -28.1455   -1.9397  -21.2350 H           1 TRP       0.0541
     26 H11       -31.7465   -3.2881  -22.9711 H           1 TRP       0.0510
     27 H12       -30.5656   -1.7468  -21.5117 H           1 TRP       0.0530
@<TRIPOS>BOND
     1     2     1   1
     2     2     5   1
     3     2     3   1
     4     3     4  ar
     5     3    15  ar
     6     5     6   1
     7     6     7   2
     8     6     8   1
     9     8    11  ar
    10     8    10  ar
    11    10    12  ar
    12    10     9   1
    13     9     7   1
    14    12    14  ar
    15    14    13  ar
    16    13    11  ar
    17     1    16   1
    18     1    17   1
    19     1    18   1
    20     2    19   1
    21     5    20   1
    22     5    21   1
    23     7    22   1
    24     9    23   1
    25    11    24   1
    26    12    25   1
    27    13    26   1
    28    14    27   1
@<TRIPOS>SUBSTRUCTURE
     1  TRP      2

