@<TRIPOS>MOLECULE
3f3a_ligand_034
    27    28
SMALL
GAST_HUCK
****
This file was generated by PARSER (from files_GN.cpp)

@<TRIPOS>ATOM
      1 N         -25.4153  -10.2312  -26.7763 N.4         1 TRP       0.2336
      2 CA        -24.8590  -10.9854  -25.6350 C.3         1 TRP       0.0324
      3 C         -24.3458  -12.3080  -26.0436 C.2         1 TRP       0.0858
      4 O         -23.7861  -13.1266  -25.1245 O.co2       1 TRP      -0.5642
      5 CB        -25.9182  -11.0514  -24.4909 C.3         1 TRP       0.0190
      6 CG        -27.1149  -11.8829  -24.7747 C.2         1 TRP      -0.0392
      7 CD1       -27.1352  -13.2683  -24.9579 C.2         1 TRP       0.0167
      8 CD2       -28.4469  -11.4732  -24.8633 C.ar        1 TRP      -0.0213
      9 NE1       -28.3930  -13.6774  -25.1770 N.pl3       1 TRP      -0.2890
     10 CE2       -29.2109  -12.6172  -25.1243 C.ar        1 TRP       0.0603
     11 CE3       -29.0799  -10.2220  -24.7305 C.ar        1 TRP      -0.0747
     12 CZ2       -30.6035  -12.5545  -25.2707 C.ar        1 TRP      -0.0443
     13 CZ3       -30.4810  -10.1447  -24.8623 C.ar        1 TRP      -0.0792
     14 CH2       -31.2399  -11.3045  -25.1424 C.ar        1 TRP      -0.0768
     15 OXT       -24.3462  -12.7126  -27.3359 O.co2       1 TRP      -0.5642
     16 H1        -25.7031   -9.3023  -26.4634 H           1 TRP       0.2011
     17 H2        -26.2247  -10.7323  -27.1416 H           1 TRP       0.2011
     18 H3        -24.7249  -10.1374  -27.5281 H           1 TRP       0.2011
     19 H4        -24.0046  -10.4179  -25.2607 H           1 TRP       0.1040
     20 H5        -26.2356  -10.0299  -24.2768 H           1 TRP       0.0423
     21 H6        -25.4474  -11.4230  -23.5769 H           1 TRP       0.0423
     22 H7        -26.3257  -13.8899  -24.9211 H           1 TRP       0.0795
     23 H8        -28.6707  -14.5951  -25.3344 H           1 TRP       0.2216
     24 H9        -28.5395   -9.3789  -24.5311 H           1 TRP       0.0540
     25 H10       -31.1451  -13.4023  -25.4535 H           1 TRP       0.0541
     26 H11       -30.9528   -9.2456  -24.7490 H           1 TRP       0.0510
     27 H12       -32.2529  -11.2370  -25.2464 H           1 TRP       0.0530
@<TRIPOS>BOND
     1     2     1   1
     2     2     5   1
     3     2     3   1
     4     3     4  ar
     5     3    15  ar
     6     5     6   1
     7     6     7   2
     8     6     8   1
     9     8    11  ar
    10     8    10  ar
    11    10    12  ar
    12    10     9   1
    13     9     7   1
    14    12    14  ar
    15    14    13  ar
    16    13    11  ar
    17     1    16   1
    18     1    17   1
    19     1    18   1
    20     2    19   1
    21     5    20   1
    22     5    21   1
    23     7    22   1
    24     9    23   1
    25    11    24   1
    26    12    25   1
    27    13    26   1
    28    14    27   1
@<TRIPOS>SUBSTRUCTURE
     1  TRP      2

