@<TRIPOS>MOLECULE
3f3a_ligand_046
    27    28
SMALL
GAST_HUCK
****
This file was generated by PARSER (from files_GN.cpp)

@<TRIPOS>ATOM
      1 N         -24.6236   -4.7139  -23.1587 N.4         1 TRP       0.2336
      2 CA        -26.0830   -4.7728  -22.9712 C.3         1 TRP       0.0324
      3 C         -26.7259   -5.6422  -23.9829 C.2         1 TRP       0.0858
      4 O         -26.0199   -6.5444  -24.7054 O.co2       1 TRP      -0.5642
      5 CB        -26.6501   -3.3200  -22.9817 C.3         1 TRP       0.0190
      6 CG        -27.8431   -3.1564  -22.1225 C.2         1 TRP      -0.0392
      7 CD1       -27.8418   -3.3055  -20.7341 C.2         1 TRP       0.0167
      8 CD2       -29.1575   -2.8388  -22.4739 C.ar        1 TRP      -0.0213
      9 NE1       -29.0822   -3.1049  -20.2629 N.pl3       1 TRP      -0.2890
     10 CE2       -29.8962   -2.8115  -21.2885 C.ar        1 TRP       0.0603
     11 CE3       -29.7804   -2.5756  -23.7102 C.ar        1 TRP      -0.0747
     12 CZ2       -31.2685   -2.5121  -21.2908 C.ar        1 TRP      -0.0443
     13 CZ3       -31.1618   -2.2838  -23.7251 C.ar        1 TRP      -0.0792
     14 CH2       -31.9010   -2.2477  -22.5245 C.ar        1 TRP      -0.0768
     15 OXT       -28.0700   -5.6422  -24.1183 O.co2       1 TRP      -0.5642
     16 H1        -24.2077   -4.1697  -22.3987 H           1 TRP       0.2011
     17 H2        -24.4035   -4.2683  -24.0487 H           1 TRP       0.2011
     18 H3        -24.2333   -5.6558  -23.1462 H           1 TRP       0.2011
     19 H4        -26.2457   -5.2255  -21.9920 H           1 TRP       0.1040
     20 H5        -26.8864   -3.0126  -24.0039 H           1 TRP       0.0423
     21 H6        -25.8843   -2.6335  -22.6087 H           1 TRP       0.0423
     22 H7        -27.0265   -3.5328  -20.1613 H           1 TRP       0.0795
     23 H8        -29.3402   -3.1626  -19.3316 H           1 TRP       0.2216
     24 H9        -29.2471   -2.5984  -24.5807 H           1 TRP       0.0540
     25 H10       -31.7986   -2.4903  -20.4197 H           1 TRP       0.0541
     26 H11       -31.6320   -2.0977  -24.6125 H           1 TRP       0.0510
     27 H12       -32.9021   -2.0395  -22.5445 H           1 TRP       0.0530
@<TRIPOS>BOND
     1     2     1   1
     2     2     5   1
     3     2     3   1
     4     3     4  ar
     5     3    15  ar
     6     5     6   1
     7     6     7   2
     8     6     8   1
     9     8    11  ar
    10     8    10  ar
    11    10    12  ar
    12    10     9   1
    13     9     7   1
    14    12    14  ar
    15    14    13  ar
    16    13    11  ar
    17     1    16   1
    18     1    17   1
    19     1    18   1
    20     2    19   1
    21     5    20   1
    22     5    21   1
    23     7    22   1
    24     9    23   1
    25    11    24   1
    26    12    25   1
    27    13    26   1
    28    14    27   1
@<TRIPOS>SUBSTRUCTURE
     1  TRP      2

