@<TRIPOS>MOLECULE
3f3a_ligand_051
    27    28
SMALL
GAST_HUCK
****
This file was generated by PARSER (from files_GN.cpp)

@<TRIPOS>ATOM
      1 N         -24.6684   -4.7075  -22.8668 N.4         1 TRP       0.2336
      2 CA        -25.7102   -3.9775  -22.1282 C.3         1 TRP       0.0324
      3 C         -26.5317   -4.9352  -21.3619 C.2         1 TRP       0.0858
      4 O         -26.7909   -4.7167  -20.0539 O.co2       1 TRP      -0.5642
      5 CB        -26.4844   -3.0104  -23.0872 C.3         1 TRP       0.0190
      6 CG        -27.9315   -3.2705  -23.2652 C.2         1 TRP      -0.0392
      7 CD1       -28.4846   -4.3707  -23.9225 C.2         1 TRP       0.0167
      8 CD2       -29.0060   -2.5016  -22.8235 C.ar        1 TRP      -0.0213
      9 NE1       -29.8228   -4.3006  -23.8525 N.pl3       1 TRP      -0.2890
     10 CE2       -30.1682   -3.1747  -23.2119 C.ar        1 TRP       0.0603
     11 CE3       -29.0860   -1.2839  -22.1199 C.ar        1 TRP      -0.0747
     12 CZ2       -31.4439   -2.6462  -22.9412 C.ar        1 TRP      -0.0443
     13 CZ3       -30.3565   -0.7416  -21.8468 C.ar        1 TRP      -0.0792
     14 CH2       -31.5279   -1.4201  -22.2489 C.ar        1 TRP      -0.0768
     15 OXT       -27.1589   -5.9650  -21.9804 O.co2       1 TRP      -0.5642
     16 H1        -24.0302   -4.0390  -23.3034 H           1 TRP       0.2011
     17 H2        -25.0911   -5.2885  -23.5966 H           1 TRP       0.2011
     18 H3        -24.1469   -5.2982  -22.2189 H           1 TRP       0.2011
     19 H4        -25.1708   -3.3624  -21.4002 H           1 TRP       0.1040
     20 H5        -26.0328   -3.0313  -24.0781 H           1 TRP       0.0423
     21 H6        -26.3536   -1.9967  -22.7144 H           1 TRP       0.0423
     22 H7        -27.9586   -5.1101  -24.3878 H           1 TRP       0.0795
     23 H8        -30.4422   -4.9413  -24.2313 H           1 TRP       0.2216
     24 H9        -28.2420   -0.7884  -21.8254 H           1 TRP       0.0540
     25 H10       -32.2841   -3.1369  -23.2330 H           1 TRP       0.0541
     26 H11       -30.4275    0.1495  -21.3520 H           1 TRP       0.0510
     27 H12       -32.4487   -1.0237  -22.0466 H           1 TRP       0.0530
@<TRIPOS>BOND
     1     2     1   1
     2     2     5   1
     3     2     3   1
     4     3     4  ar
     5     3    15  ar
     6     5     6   1
     7     6     7   2
     8     6     8   1
     9     8    11  ar
    10     8    10  ar
    11    10    12  ar
    12    10     9   1
    13     9     7   1
    14    12    14  ar
    15    14    13  ar
    16    13    11  ar
    17     1    16   1
    18     1    17   1
    19     1    18   1
    20     2    19   1
    21     5    20   1
    22     5    21   1
    23     7    22   1
    24     9    23   1
    25    11    24   1
    26    12    25   1
    27    13    26   1
    28    14    27   1
@<TRIPOS>SUBSTRUCTURE
     1  TRP      2

