@<TRIPOS>MOLECULE
3f3c_ligand_004
    23    23
SMALL
GAST_HUCK
****
This file was generated by PARSER (from files_GN.cpp)

@<TRIPOS>ATOM
      1 N          28.3946   34.6639   20.6615 N.4         1 PFF       0.2341
      2 CA         27.8045   33.7682   21.6753 C.3         1 PFF       0.0373
      3 C          28.0310   34.3699   23.0100 C.2         1 PFF       0.0865
      4 O          28.7504   33.7565   23.9775 O.co2       1 PFF      -0.5641
      5 OXT        27.4591   35.5594   23.3067 O.co2       1 PFF      -0.5641
      6 CB         28.3645   32.3181   21.5281 C.3         1 PFF       0.0343
      7 CG         27.8612   31.6281   20.3077 C.ar        1 PFF      -0.0398
      8 CD1        26.7958   30.7022   20.3861 C.ar        1 PFF      -0.0617
      9 CD2        28.4211   31.9064   19.0409 C.ar        1 PFF      -0.0617
     10 CE1        26.2956   30.0786   19.2261 C.ar        1 PFF      -0.0349
     11 CE2        27.9211   31.2891   17.8789 C.ar        1 PFF      -0.0349
     12 CZ         26.8618   30.3708   17.9701 C.ar        1 PFF       0.1248
     13 F          26.3955   29.7896   16.8967 F           1 PFF      -0.1893
     14 H1         28.1857   34.3309   19.7211 H           1 PFF       0.2012
     15 H2         29.4081   34.7075   20.7837 H           1 PFF       0.2012
     16 H3         28.0070   35.6061   20.7475 H           1 PFF       0.2012
     17 H4         26.7226   33.7372   21.5223 H           1 PFF       0.1048
     18 H5         28.0801   31.7345   22.4104 H           1 PFF       0.0493
     19 H6         29.4557   32.3388   21.5071 H           1 PFF       0.0493
     20 H7         26.3650   30.4831   21.2861 H           1 PFF       0.0547
     21 H8         29.1982   32.5641   18.9529 H           1 PFF       0.0547
     22 H9         25.5163   29.4189   19.2982 H           1 PFF       0.0587
     23 H10        28.3237   31.5226   16.9670 H           1 PFF       0.0587
@<TRIPOS>BOND
     1     1     2   1
     2     2     3   1
     3     2     6   1
     4     3     4  ar
     5     3     5  ar
     6     6     7   1
     7     7     8  ar
     8     7     9  ar
     9     8    10  ar
    10     9    11  ar
    11    10    12  ar
    12    11    12  ar
    13    12    13   1
    14     1    14   1
    15     1    15   1
    16     1    16   1
    17     2    17   1
    18     6    18   1
    19     6    19   1
    20     8    20   1
    21     9    21   1
    22    10    22   1
    23    11    23   1
@<TRIPOS>SUBSTRUCTURE
     1  PFF      2

