@<TRIPOS>MOLECULE
3f3c_ligand_006
    23    23
SMALL
GAST_HUCK
****
This file was generated by PARSER (from files_GN.cpp)

@<TRIPOS>ATOM
      1 N          29.6513   36.0079   21.2553 N.4         1 PFF       0.2341
      2 CA         28.6273   34.9522   21.1473 C.3         1 PFF       0.0373
      3 C          27.5592   35.1513   22.1550 C.2         1 PFF       0.0865
      4 O          27.3766   36.3562   22.7622 O.co2       1 PFF      -0.5641
      5 OXT        26.6138   34.1959   22.3467 O.co2       1 PFF      -0.5641
      6 CB         29.3067   33.5466   21.2488 C.3         1 PFF       0.0343
      7 CG         28.4510   32.4399   20.7473 C.ar        1 PFF      -0.0398
      8 CD1        28.4733   32.0761   19.3820 C.ar        1 PFF      -0.0617
      9 CD2        27.5680   31.7549   21.6154 C.ar        1 PFF      -0.0617
     10 CE1        27.6423   31.0570   18.8829 C.ar        1 PFF      -0.0349
     11 CE2        26.7324   30.7354   21.1171 C.ar        1 PFF      -0.0349
     12 CZ         26.7562   30.3901   19.7486 C.ar        1 PFF       0.1248
     13 F          25.9613   29.4696   19.2775 F           1 PFF      -0.1893
     14 H1         30.4111   35.8296   20.5844 H           1 PFF       0.2012
     15 H2         30.0317   36.0287   22.2064 H           1 PFF       0.2012
     16 H3         29.2190   36.9123   21.0406 H           1 PFF       0.2012
     17 H4         28.1833   35.0512   20.1583 H           1 PFF       0.1048
     18 H5         29.5926   33.3578   22.2886 H           1 PFF       0.0493
     19 H6         30.2336   33.5439   20.6630 H           1 PFF       0.0493
     20 H7         29.1085   32.5571   18.7312 H           1 PFF       0.0547
     21 H8         27.5163   31.9932   22.5998 H           1 PFF       0.0547
     22 H9         27.6795   30.8092   17.8826 H           1 PFF       0.0587
     23 H10        26.0870   30.2595   21.7530 H           1 PFF       0.0587
@<TRIPOS>BOND
     1     1     2   1
     2     2     3   1
     3     2     6   1
     4     3     4  ar
     5     3     5  ar
     6     6     7   1
     7     7     8  ar
     8     7     9  ar
     9     8    10  ar
    10     9    11  ar
    11    10    12  ar
    12    11    12  ar
    13    12    13   1
    14     1    14   1
    15     1    15   1
    16     1    16   1
    17     2    17   1
    18     6    18   1
    19     6    19   1
    20     8    20   1
    21     9    21   1
    22    10    22   1
    23    11    23   1
@<TRIPOS>SUBSTRUCTURE
     1  PFF      2

