@<TRIPOS>MOLECULE
3f3c_ligand_010
    23    23
SMALL
GAST_HUCK
****
This file was generated by PARSER (from files_GN.cpp)

@<TRIPOS>ATOM
      1 N          26.3189   32.0575   22.2780 N.4         1 PFF       0.2341
      2 CA         27.2413   32.0801   21.1299 C.3         1 PFF       0.0373
      3 C          27.8538   30.7457   20.9473 C.2         1 PFF       0.0865
      4 O          28.3077   30.0338   22.0047 O.co2       1 PFF      -0.5641
      5 OXT        28.1442   30.2857   19.7119 O.co2       1 PFF      -0.5641
      6 CB         28.2699   33.2411   21.2636 C.3         1 PFF       0.0343
      7 CG         29.0726   33.2161   22.5210 C.ar        1 PFF      -0.0398
      8 CD1        30.1712   32.3305   22.6596 C.ar        1 PFF      -0.0617
      9 CD2        28.7540   34.0687   23.6086 C.ar        1 PFF      -0.0617
     10 CE1        30.9054   32.2733   23.8553 C.ar        1 PFF      -0.0349
     11 CE2        29.4963   34.0195   24.8010 C.ar        1 PFF      -0.0349
     12 CZ         30.5686   33.1164   24.9321 C.ar        1 PFF       0.1248
     13 F          31.2688   33.0878   26.0318 F           1 PFF      -0.1893
     14 H1         25.8686   32.9674   22.3746 H           1 PFF       0.2012
     15 H2         26.8392   31.8430   23.1306 H           1 PFF       0.2012
     16 H3         25.6006   31.3436   22.1262 H           1 PFF       0.2012
     17 H4         26.6300   32.2847   20.2474 H           1 PFF       0.1048
     18 H5         27.7083   34.1828   21.1957 H           1 PFF       0.0493
     19 H6         28.9484   33.2363   20.4079 H           1 PFF       0.0493
     20 H7         30.4508   31.7230   21.8852 H           1 PFF       0.0547
     21 H8         27.9707   34.7239   23.5404 H           1 PFF       0.0547
     22 H9         31.6925   31.6219   23.9338 H           1 PFF       0.0587
     23 H10        29.2537   34.6459   25.5756 H           1 PFF       0.0587
@<TRIPOS>BOND
     1     1     2   1
     2     2     3   1
     3     2     6   1
     4     3     4  ar
     5     3     5  ar
     6     6     7   1
     7     7     8  ar
     8     7     9  ar
     9     8    10  ar
    10     9    11  ar
    11    10    12  ar
    12    11    12  ar
    13    12    13   1
    14     1    14   1
    15     1    15   1
    16     1    16   1
    17     2    17   1
    18     6    18   1
    19     6    19   1
    20     8    20   1
    21     9    21   1
    22    10    22   1
    23    11    23   1
@<TRIPOS>SUBSTRUCTURE
     1  PFF      2

