@<TRIPOS>MOLECULE
3f3c_ligand_009
    23    23
SMALL
GAST_HUCK
****
This file was generated by PARSER (from files_GN.cpp)

@<TRIPOS>ATOM
      1 N          27.1564   31.4605   18.9651 N.4         1 PFF       0.2341
      2 CA         27.9742   32.2490   19.8965 C.3         1 PFF       0.0373
      3 C          29.0689   31.4304   20.4504 C.2         1 PFF       0.0865
      4 O          30.3140   31.9489   20.5678 O.co2       1 PFF      -0.5641
      5 OXT        28.7893   30.2785   21.1013 O.co2       1 PFF      -0.5641
      6 CB         27.1035   32.8702   21.0245 C.3         1 PFF       0.0343
      7 CG         27.8030   33.8903   21.8596 C.ar        1 PFF      -0.0398
      8 CD1        27.8868   33.7459   23.2666 C.ar        1 PFF      -0.0617
      9 CD2        28.3691   35.0427   21.2695 C.ar        1 PFF      -0.0617
     10 CE1        28.5205   34.7288   24.0523 C.ar        1 PFF      -0.0349
     11 CE2        29.0115   36.0235   22.0514 C.ar        1 PFF      -0.0349
     12 CZ         29.0821   35.8655   23.4492 C.ar        1 PFF       0.1248
     13 F          29.6661   36.7736   24.1840 F           1 PFF      -0.1893
     14 H1         26.4165   32.0423   18.5667 H           1 PFF       0.2012
     15 H2         26.7358   30.6654   19.4566 H           1 PFF       0.2012
     16 H3         27.7449   31.1152   18.2022 H           1 PFF       0.2012
     17 H4         28.4120   33.0529   19.2879 H           1 PFF       0.1048
     18 H5         26.7058   32.0524   21.6443 H           1 PFF       0.0493
     19 H6         26.2339   33.3535   20.5747 H           1 PFF       0.0493
     20 H7         27.4803   32.9347   23.7295 H           1 PFF       0.0547
     21 H8         28.3275   35.1833   20.2565 H           1 PFF       0.0547
     22 H9         28.5707   34.6120   25.0688 H           1 PFF       0.0587
     23 H10        29.4219   36.8464   21.6055 H           1 PFF       0.0587
@<TRIPOS>BOND
     1     1     2   1
     2     2     3   1
     3     2     6   1
     4     3     4  ar
     5     3     5  ar
     6     6     7   1
     7     7     8  ar
     8     7     9  ar
     9     8    10  ar
    10     9    11  ar
    11    10    12  ar
    12    11    12  ar
    13    12    13   1
    14     1    14   1
    15     1    15   1
    16     1    16   1
    17     2    17   1
    18     6    18   1
    19     6    19   1
    20     8    20   1
    21     9    21   1
    22    10    22   1
    23    11    23   1
@<TRIPOS>SUBSTRUCTURE
     1  PFF      2

