@<TRIPOS>MOLECULE
3f3c_ligand_012
    23    23
SMALL
GAST_HUCK
****
This file was generated by PARSER (from files_GN.cpp)

@<TRIPOS>ATOM
      1 N          26.0658   32.8428   22.2455 N.4         1 PFF       0.2341
      2 CA         27.0817   32.0008   22.9010 C.3         1 PFF       0.0373
      3 C          28.2830   32.7876   23.2577 C.2         1 PFF       0.0865
      4 O          29.0777   32.3991   24.2816 O.co2       1 PFF      -0.5641
      5 OXT        28.6720   33.8590   22.5315 O.co2       1 PFF      -0.5641
      6 CB         27.3596   30.6988   22.0956 C.3         1 PFF       0.0343
      7 CG         27.6362   30.9026   20.6496 C.ar        1 PFF      -0.0398
      8 CD1        28.7913   31.6056   20.2436 C.ar        1 PFF      -0.0617
      9 CD2        26.7452   30.4442   19.6444 C.ar        1 PFF      -0.0617
     10 CE1        29.0024   31.9273   18.8970 C.ar        1 PFF      -0.0349
     11 CE2        26.9771   30.7305   18.2920 C.ar        1 PFF      -0.0349
     12 CZ         28.0900   31.5055   17.9191 C.ar        1 PFF       0.1248
     13 F          28.2729   31.8393   16.6782 F           1 PFF      -0.1893
     14 H1         25.2452   32.2693   22.0354 H           1 PFF       0.2012
     15 H2         26.4384   33.2248   21.3700 H           1 PFF       0.2012
     16 H3         25.8102   33.6174   22.8605 H           1 PFF       0.2012
     17 H4         26.6388   31.6877   23.8435 H           1 PFF       0.1048
     18 H5         26.4651   30.0718   22.2112 H           1 PFF       0.0493
     19 H6         28.1877   30.1522   22.5455 H           1 PFF       0.0493
     20 H7         29.4872   31.9105   20.9181 H           1 PFF       0.0547
     21 H8         25.9208   29.8989   19.8963 H           1 PFF       0.0547
     22 H9         29.8188   32.4802   18.6481 H           1 PFF       0.0587
     23 H10        26.3256   30.3973   17.5790 H           1 PFF       0.0587
@<TRIPOS>BOND
     1     1     2   1
     2     2     3   1
     3     2     6   1
     4     3     4  ar
     5     3     5  ar
     6     6     7   1
     7     7     8  ar
     8     7     9  ar
     9     8    10  ar
    10     9    11  ar
    11    10    12  ar
    12    11    12  ar
    13    12    13   1
    14     1    14   1
    15     1    15   1
    16     1    16   1
    17     2    17   1
    18     6    18   1
    19     6    19   1
    20     8    20   1
    21     9    21   1
    22    10    22   1
    23    11    23   1
@<TRIPOS>SUBSTRUCTURE
     1  PFF      2

