@<TRIPOS>MOLECULE
3f3c_ligand_005
    23    23
SMALL
GAST_HUCK
****
This file was generated by PARSER (from files_GN.cpp)

@<TRIPOS>ATOM
      1 N          29.1657   36.5880   21.9483 N.4         1 PFF       0.2341
      2 CA         28.2611   35.7670   22.7697 C.3         1 PFF       0.0373
      3 C          28.9463   35.4530   24.0494 C.2         1 PFF       0.0865
      4 O          29.0814   34.1750   24.5088 O.co2       1 PFF      -0.5641
      5 OXT        29.4618   36.4706   24.8053 O.co2       1 PFF      -0.5641
      6 CB         27.6557   34.5711   21.9738 C.3         1 PFF       0.0343
      7 CG         28.2034   33.2059   22.2459 C.ar        1 PFF      -0.0398
      8 CD1        27.3966   32.2215   22.8630 C.ar        1 PFF      -0.0617
      9 CD2        29.4993   32.8390   21.8332 C.ar        1 PFF      -0.0617
     10 CE1        27.9050   30.9536   23.1750 C.ar        1 PFF      -0.0349
     11 CE2        30.0192   31.5676   22.1466 C.ar        1 PFF      -0.0349
     12 CZ         29.2312   30.6373   22.8546 C.ar        1 PFF       0.1248
     13 F          29.7176   29.4724   23.1960 F           1 PFF      -0.1893
     14 H1         28.6320   36.9733   21.1765 H           1 PFF       0.2012
     15 H2         29.9436   36.0362   21.5936 H           1 PFF       0.2012
     16 H3         29.5333   37.3583   22.5172 H           1 PFF       0.2012
     17 H4         27.4297   36.4350   23.0221 H           1 PFF       0.1048
     18 H5         27.7681   34.7778   20.9034 H           1 PFF       0.0493
     19 H6         26.5835   34.5741   22.1602 H           1 PFF       0.0493
     20 H7         26.4392   32.4446   23.1510 H           1 PFF       0.0547
     21 H8         30.0954   33.5033   21.3491 H           1 PFF       0.0547
     22 H9         27.3217   30.2745   23.6828 H           1 PFF       0.0587
     23 H10        30.9859   31.3353   21.8969 H           1 PFF       0.0587
@<TRIPOS>BOND
     1     1     2   1
     2     2     3   1
     3     2     6   1
     4     3     4  ar
     5     3     5  ar
     6     6     7   1
     7     7     8  ar
     8     7     9  ar
     9     8    10  ar
    10     9    11  ar
    11    10    12  ar
    12    11    12  ar
    13    12    13   1
    14     1    14   1
    15     1    15   1
    16     1    16   1
    17     2    17   1
    18     6    18   1
    19     6    19   1
    20     8    20   1
    21     9    21   1
    22    10    22   1
    23    11    23   1
@<TRIPOS>SUBSTRUCTURE
     1  PFF      2

