@<TRIPOS>MOLECULE
3f3c_ligand_014
    23    23
SMALL
GAST_HUCK
****
This file was generated by PARSER (from files_GN.cpp)

@<TRIPOS>ATOM
      1 N          26.2596   31.9366   22.6426 N.4         1 PFF       0.2341
      2 CA         27.2019   30.8154   22.5000 C.3         1 PFF       0.0373
      3 C          28.2015   30.8056   23.5954 C.2         1 PFF       0.0865
      4 O          28.8772   29.6673   23.8706 O.co2       1 PFF      -0.5641
      5 OXT        28.6733   31.9612   24.1161 O.co2       1 PFF      -0.5641
      6 CB         27.8309   30.7253   21.0826 C.3         1 PFF       0.0343
      7 CG         28.5318   31.9687   20.6637 C.ar        1 PFF      -0.0398
      8 CD1        27.7951   33.1036   20.2512 C.ar        1 PFF      -0.0617
      9 CD2        29.9405   32.0719   20.7404 C.ar        1 PFF      -0.0617
     10 CE1        28.4453   34.3195   19.9950 C.ar        1 PFF      -0.0349
     11 CE2        30.5936   33.2694   20.4148 C.ar        1 PFF      -0.0349
     12 CZ         29.8455   34.4052   20.0585 C.ar        1 PFF       0.1248
     13 F          30.4239   35.5483   19.8077 F           1 PFF      -0.1893
     14 H1         25.5525   31.8787   21.9008 H           1 PFF       0.2012
     15 H2         26.7576   32.8367   22.5856 H           1 PFF       0.2012
     16 H3         25.8027   31.8625   23.5445 H           1 PFF       0.2012
     17 H4         26.5831   29.9291   22.6310 H           1 PFF       0.1048
     18 H5         27.0438   30.4991   20.3575 H           1 PFF       0.0493
     19 H6         28.5216   29.8770   21.0528 H           1 PFF       0.0493
     20 H7         26.7776   33.0607   20.1773 H           1 PFF       0.0547
     21 H8         30.4991   31.2822   21.0713 H           1 PFF       0.0547
     22 H9         27.9008   35.1532   19.7696 H           1 PFF       0.0587
     23 H10        31.6140   33.3151   20.4669 H           1 PFF       0.0587
@<TRIPOS>BOND
     1     1     2   1
     2     2     3   1
     3     2     6   1
     4     3     4  ar
     5     3     5  ar
     6     6     7   1
     7     7     8  ar
     8     7     9  ar
     9     8    10  ar
    10     9    11  ar
    11    10    12  ar
    12    11    12  ar
    13    12    13   1
    14     1    14   1
    15     1    15   1
    16     1    16   1
    17     2    17   1
    18     6    18   1
    19     6    19   1
    20     8    20   1
    21     9    21   1
    22    10    22   1
    23    11    23   1
@<TRIPOS>SUBSTRUCTURE
     1  PFF      2

