@<TRIPOS>MOLECULE
3f3c_ligand_011
    23    23
SMALL
GAST_HUCK
****
This file was generated by PARSER (from files_GN.cpp)

@<TRIPOS>ATOM
      1 N          28.4106   36.5158   22.5708 N.4         1 PFF       0.2341
      2 CA         27.8266   35.6050   23.5713 C.3         1 PFF       0.0373
      3 C          28.7196   35.6030   24.7558 C.2         1 PFF       0.0865
      4 O          28.9187   36.7541   25.4402 O.co2       1 PFF      -0.5641
      5 OXT        29.2754   34.4745   25.2504 O.co2       1 PFF      -0.5641
      6 CB         27.5020   34.1974   22.9812 C.3         1 PFF       0.0343
      7 CG         28.5690   33.6209   22.1160 C.ar        1 PFF      -0.0398
      8 CD1        28.8285   34.2039   20.8537 C.ar        1 PFF      -0.0617
      9 CD2        29.3404   32.5076   22.5248 C.ar        1 PFF      -0.0617
     10 CE1        29.8948   33.7561   20.0661 C.ar        1 PFF      -0.0349
     11 CE2        30.3997   32.0407   21.7245 C.ar        1 PFF      -0.0349
     12 CZ         30.6947   32.6858   20.5074 C.ar        1 PFF       0.1248
     13 F          31.7157   32.3051   19.7928 F           1 PFF      -0.1893
     14 H1         27.7975   36.5844   21.7511 H           1 PFF       0.2012
     15 H2         29.3294   36.1722   22.2787 H           1 PFF       0.2012
     16 H3         28.5298   37.4420   22.9800 H           1 PFF       0.2012
     17 H4         26.8786   36.0564   23.8791 H           1 PFF       0.1048
     18 H5         26.5861   34.2761   22.3898 H           1 PFF       0.0493
     19 H6         27.2767   33.5133   23.8045 H           1 PFF       0.0493
     20 H7         28.2635   34.9826   20.5092 H           1 PFF       0.0547
     21 H8         29.1593   32.0462   23.4194 H           1 PFF       0.0547
     22 H9         30.0923   34.2270   19.1846 H           1 PFF       0.0587
     23 H10        30.9685   31.2523   22.0403 H           1 PFF       0.0587
@<TRIPOS>BOND
     1     1     2   1
     2     2     3   1
     3     2     6   1
     4     3     4  ar
     5     3     5  ar
     6     6     7   1
     7     7     8  ar
     8     7     9  ar
     9     8    10  ar
    10     9    11  ar
    11    10    12  ar
    12    11    12  ar
    13    12    13   1
    14     1    14   1
    15     1    15   1
    16     1    16   1
    17     2    17   1
    18     6    18   1
    19     6    19   1
    20     8    20   1
    21     9    21   1
    22    10    22   1
    23    11    23   1
@<TRIPOS>SUBSTRUCTURE
     1  PFF      2

