@<TRIPOS>MOLECULE
3f3c_ligand_002
    23    23
SMALL
GAST_HUCK
****
This file was generated by PARSER (from files_GN.cpp)

@<TRIPOS>ATOM
      1 N          25.9966   32.4950   18.9462 N.4         1 PFF       0.2341
      2 CA         27.2455   31.7955   18.5745 C.3         1 PFF       0.0373
      3 C          27.0334   30.3493   18.3670 C.2         1 PFF       0.0865
      4 O          28.0976   29.5303   18.1771 O.co2       1 PFF      -0.5641
      5 OXT        25.7938   29.8048   18.2908 O.co2       1 PFF      -0.5641
      6 CB         28.4134   32.1264   19.5537 C.3         1 PFF       0.0343
      7 CG         28.4229   31.5964   20.9512 C.ar        1 PFF      -0.0398
      8 CD1        27.2974   31.0044   21.5756 C.ar        1 PFF      -0.0617
      9 CD2        29.6159   31.7128   21.7072 C.ar        1 PFF      -0.0617
     10 CE1        27.3611   30.5537   22.9041 C.ar        1 PFF      -0.0349
     11 CE2        29.6906   31.2386   23.0281 C.ar        1 PFF      -0.0349
     12 CZ         28.5605   30.6520   23.6295 C.ar        1 PFF       0.1248
     13 F          28.6143   30.2089   24.8530 F           1 PFF      -0.1893
     14 H1         26.1981   33.4662   19.1825 H           1 PFF       0.2012
     15 H2         25.5359   32.0377   19.7353 H           1 PFF       0.2012
     16 H3         25.3672   32.4726   18.1399 H           1 PFF       0.2012
     17 H4         27.5328   32.2075   17.6013 H           1 PFF       0.1048
     18 H5         28.4957   33.2172   19.6163 H           1 PFF       0.0493
     19 H6         29.3288   31.7787   19.0676 H           1 PFF       0.0493
     20 H7         26.4196   30.8908   21.0807 H           1 PFF       0.0547
     21 H8         30.4525   32.1371   21.2914 H           1 PFF       0.0547
     22 H9         26.5322   30.1349   23.3336 H           1 PFF       0.0587
     23 H10        30.5698   31.3143   23.5467 H           1 PFF       0.0587
@<TRIPOS>BOND
     1     1     2   1
     2     2     3   1
     3     2     6   1
     4     3     4  ar
     5     3     5  ar
     6     6     7   1
     7     7     8  ar
     8     7     9  ar
     9     8    10  ar
    10     9    11  ar
    11    10    12  ar
    12    11    12  ar
    13    12    13   1
    14     1    14   1
    15     1    15   1
    16     1    16   1
    17     2    17   1
    18     6    18   1
    19     6    19   1
    20     8    20   1
    21     9    21   1
    22    10    22   1
    23    11    23   1
@<TRIPOS>SUBSTRUCTURE
     1  PFF      2

