@<TRIPOS>MOLECULE
3f3e_ligand_005
    22    21
SMALL
GAST_HUCK
****
This file was generated by PARSER (from files_GN.cpp)

@<TRIPOS>ATOM
      1 N          28.2843   34.9234   20.1797 N.4         1 LEU       0.2327
      2 CA         27.5432   33.7718   20.7225 C.3         1 LEU       0.0286
      3 C          27.9075   33.6605   22.1530 C.2         1 LEU       0.0844
      4 O          27.1529   34.2020   23.1319 O.co2       1 LEU      -0.5643
      5 CB         27.8301   32.4942   19.8737 C.3         1 LEU       0.0047
      6 CG         26.9388   31.2035   20.1019 C.3         1 LEU      -0.0400
      7 CD1        26.1406   31.1944   21.4373 C.3         1 LEU      -0.0624
      8 CD2        25.9968   30.9166   18.9077 C.3         1 LEU      -0.0624
      9 OXT        28.9721   32.8873   22.5197 O.co2       1 LEU      -0.5643
     10 H1         27.9371   35.1113   19.2466 H           1 LEU       0.2010
     11 H2         29.2787   34.7165   20.1485 H           1 LEU       0.2010
     12 H3         28.1226   35.7329   20.7709 H           1 LEU       0.2010
     13 H4         26.4782   34.0176   20.6504 H           1 LEU       0.1024
     14 H5         28.8767   32.2167   20.0184 H           1 LEU       0.0341
     15 H6         27.7471   32.7682   18.8162 H           1 LEU       0.0341
     16 H7         27.6299   30.3650   20.1459 H           1 LEU       0.0298
     17 H8         25.6352   30.2399   21.5739 H           1 LEU       0.0232
     18 H9         25.3892   31.9901   21.4532 H           1 LEU       0.0232
     19 H10        26.8130   31.3281   22.2773 H           1 LEU       0.0232
     20 H11        26.5691   30.7946   17.9834 H           1 LEU       0.0232
     21 H12        25.2800   31.7334   18.7728 H           1 LEU       0.0232
     22 H13        25.4428   29.9902   19.0805 H           1 LEU       0.0232
@<TRIPOS>BOND
     1     1     2   1
     2     2     3   1
     3     2     5   1
     4     3     4  ar
     5     3     9  ar
     6     5     6   1
     7     6     7   1
     8     6     8   1
     9     1    10   1
    10     1    11   1
    11     1    12   1
    12     2    13   1
    13     5    14   1
    14     5    15   1
    15     6    16   1
    16     7    17   1
    17     7    18   1
    18     7    19   1
    19     8    20   1
    20     8    21   1
    21     8    22   1
@<TRIPOS>SUBSTRUCTURE
     1  LEU      2

