@<TRIPOS>MOLECULE
3f3e_ligand_003
    22    21
SMALL
GAST_HUCK
****
This file was generated by PARSER (from files_GN.cpp)

@<TRIPOS>ATOM
      1 N          28.3120   34.7965   19.7742 N.4         1 LEU       0.2327
      2 CA         27.6483   34.4357   21.0421 C.3         1 LEU       0.0286
      3 C          27.5562   35.6187   21.9262 C.2         1 LEU       0.0844
      4 O          28.2764   36.7420   21.7060 O.co2       1 LEU      -0.5643
      5 CB         28.3644   33.2232   21.7255 C.3         1 LEU       0.0047
      6 CG         27.8346   31.7930   21.3701 C.3         1 LEU      -0.0400
      7 CD1        26.4404   31.4981   21.9902 C.3         1 LEU      -0.0624
      8 CD2        27.8543   31.4797   19.8507 C.3         1 LEU      -0.0624
      9 OXT        26.7527   35.5832   23.0110 O.co2       1 LEU      -0.5643
     10 H1         28.2887   34.0010   19.1399 H           1 LEU       0.2010
     11 H2         29.2859   35.0653   19.9473 H           1 LEU       0.2010
     12 H3         27.8153   35.5830   19.3492 H           1 LEU       0.2010
     13 H4         26.6277   34.1594   20.7839 H           1 LEU       0.1024
     14 H5         28.3028   33.3217   22.8162 H           1 LEU       0.0341
     15 H6         29.4323   33.2662   21.4871 H           1 LEU       0.0341
     16 H7         28.5294   31.0852   21.8365 H           1 LEU       0.0298
     17 H8         26.1642   30.4524   21.8240 H           1 LEU       0.0232
     18 H9         25.6647   32.1306   21.5525 H           1 LEU       0.0232
     19 H10        26.4605   31.6713   23.0692 H           1 LEU       0.0232
     20 H11        28.8403   31.6895   19.4336 H           1 LEU       0.0232
     21 H12        27.1125   32.0762   19.3147 H           1 LEU       0.0232
     22 H13        27.6324   30.4241   19.6830 H           1 LEU       0.0232
@<TRIPOS>BOND
     1     1     2   1
     2     2     3   1
     3     2     5   1
     4     3     4  ar
     5     3     9  ar
     6     5     6   1
     7     6     7   1
     8     6     8   1
     9     1    10   1
    10     1    11   1
    11     1    12   1
    12     2    13   1
    13     5    14   1
    14     5    15   1
    15     6    16   1
    16     7    17   1
    17     7    18   1
    18     7    19   1
    19     8    20   1
    20     8    21   1
    21     8    22   1
@<TRIPOS>SUBSTRUCTURE
     1  LEU      2

