@<TRIPOS>MOLECULE
3f3e_ligand_007
    22    21
SMALL
GAST_HUCK
****
This file was generated by PARSER (from files_GN.cpp)

@<TRIPOS>ATOM
      1 N          25.6610   30.8866   21.7841 N.4         1 LEU       0.2327
      2 CA         26.0950   31.2077   20.4135 C.3         1 LEU       0.0286
      3 C          27.2359   30.3612   19.9994 C.2         1 LEU       0.0844
      4 O          28.2460   30.1002   20.8592 O.co2       1 LEU      -0.5643
      5 CB         26.3999   32.7253   20.2458 C.3         1 LEU       0.0047
      6 CG         27.3802   33.3718   21.2884 C.3         1 LEU      -0.0400
      7 CD1        28.2378   34.4986   20.6472 C.3         1 LEU      -0.0624
      8 CD2        26.6562   33.9076   22.5602 C.3         1 LEU      -0.0624
      9 OXT        27.2050   29.6844   18.8260 O.co2       1 LEU      -0.5643
     10 H1         24.8540   31.4631   22.0284 H           1 LEU       0.2010
     11 H2         26.4193   31.0696   22.4455 H           1 LEU       0.2010
     12 H3         25.3955   29.9073   21.8473 H           1 LEU       0.2010
     13 H4         25.2589   30.9672   19.7514 H           1 LEU       0.1024
     14 H5         25.4468   33.2579   20.2755 H           1 LEU       0.0341
     15 H6         26.7922   32.8641   19.2316 H           1 LEU       0.0341
     16 H7         28.0863   32.6060   21.6198 H           1 LEU       0.0298
     17 H8         28.9477   34.8974   21.3743 H           1 LEU       0.0232
     18 H9         27.6067   35.3139   20.2889 H           1 LEU       0.0232
     19 H10        28.8112   34.1037   19.8059 H           1 LEU       0.0232
     20 H11        26.1108   33.1153   23.0708 H           1 LEU       0.0232
     21 H12        25.9513   34.6981   22.3018 H           1 LEU       0.0232
     22 H13        27.3794   34.3151   23.2669 H           1 LEU       0.0232
@<TRIPOS>BOND
     1     1     2   1
     2     2     3   1
     3     2     5   1
     4     3     4  ar
     5     3     9  ar
     6     5     6   1
     7     6     7   1
     8     6     8   1
     9     1    10   1
    10     1    11   1
    11     1    12   1
    12     2    13   1
    13     5    14   1
    14     5    15   1
    15     6    16   1
    16     7    17   1
    17     7    18   1
    18     7    19   1
    19     8    20   1
    20     8    21   1
    21     8    22   1
@<TRIPOS>SUBSTRUCTURE
     1  LEU      2

