@<TRIPOS>MOLECULE
3f3e_ligand_002
    22    21
SMALL
GAST_HUCK
****
This file was generated by PARSER (from files_GN.cpp)

@<TRIPOS>ATOM
      1 N          25.3620   32.5830   21.6622 N.4         1 LEU       0.2327
      2 CA         26.5613   31.9370   22.2330 C.3         1 LEU       0.0286
      3 C          27.2493   32.8079   23.2011 C.2         1 LEU       0.0844
      4 O          28.1538   32.2875   24.0604 O.co2       1 LEU      -0.5643
      5 CB         27.4939   31.3482   21.1247 C.3         1 LEU       0.0047
      6 CG         28.4806   32.2804   20.3429 C.3         1 LEU      -0.0400
      7 CD1        27.8697   33.6258   19.8619 C.3         1 LEU      -0.0624
      8 CD2        29.8246   32.5225   21.0884 C.3         1 LEU      -0.0624
      9 OXT        26.9413   34.1190   23.3268 O.co2       1 LEU      -0.5643
     10 H1         24.8307   31.9033   21.1131 H           1 LEU       0.2010
     11 H2         25.6169   33.3668   21.0658 H           1 LEU       0.2010
     12 H3         24.7704   32.9180   22.4249 H           1 LEU       0.2010
     13 H4         26.1624   31.0823   22.8029 H           1 LEU       0.1024
     14 H5         26.8394   30.8697   20.3888 H           1 LEU       0.0341
     15 H6         28.0736   30.5311   21.5734 H           1 LEU       0.0341
     16 H7         28.7538   31.7336   19.4375 H           1 LEU       0.0298
     17 H8         28.5818   34.1788   19.2399 H           1 LEU       0.0232
     18 H9         27.6054   34.2582   20.7118 H           1 LEU       0.0232
     19 H10        26.9775   33.4386   19.2609 H           1 LEU       0.0232
     20 H11        30.2807   31.5736   21.3800 H           1 LEU       0.0232
     21 H12        29.6633   33.1294   21.9808 H           1 LEU       0.0232
     22 H13        30.5280   33.0436   20.4342 H           1 LEU       0.0232
@<TRIPOS>BOND
     1     1     2   1
     2     2     3   1
     3     2     5   1
     4     3     4  ar
     5     3     9  ar
     6     5     6   1
     7     6     7   1
     8     6     8   1
     9     1    10   1
    10     1    11   1
    11     1    12   1
    12     2    13   1
    13     5    14   1
    14     5    15   1
    15     6    16   1
    16     7    17   1
    17     7    18   1
    18     7    19   1
    19     8    20   1
    20     8    21   1
    21     8    22   1
@<TRIPOS>SUBSTRUCTURE
     1  LEU      2

