@<TRIPOS>MOLECULE
3f3e_ligand_006
    22    21
SMALL
GAST_HUCK
****
This file was generated by PARSER (from files_GN.cpp)

@<TRIPOS>ATOM
      1 N          26.0258   32.7853   18.8290 N.4         1 LEU       0.2327
      2 CA         26.4046   32.5267   20.2258 C.3         1 LEU       0.0286
      3 C          27.1721   33.6952   20.7018 C.2         1 LEU       0.0844
      4 O          26.7372   34.4273   21.7521 O.co2       1 LEU      -0.5643
      5 CB         27.1813   31.1751   20.3309 C.3         1 LEU       0.0047
      6 CG         27.8133   30.7933   21.7106 C.3         1 LEU      -0.0400
      7 CD1        29.1347   31.5461   22.0319 C.3         1 LEU      -0.0624
      8 CD2        26.8082   30.8871   22.8949 C.3         1 LEU      -0.0624
      9 OXT        28.2924   34.0956   20.0615 O.co2       1 LEU      -0.5643
     10 H1         25.4445   32.0158   18.4826 H           1 LEU       0.2010
     11 H2         26.8671   32.8661   18.2508 H           1 LEU       0.2010
     12 H3         25.4919   33.6579   18.7760 H           1 LEU       0.2010
     13 H4         25.4714   32.4511   20.7889 H           1 LEU       0.1024
     14 H5         27.9720   31.1629   19.5742 H           1 LEU       0.0341
     15 H6         26.4946   30.3662   20.0592 H           1 LEU       0.0341
     16 H7         28.0814   29.7311   21.6310 H           1 LEU       0.0298
     17 H8         29.6219   31.0956   22.8977 H           1 LEU       0.0232
     18 H9         28.9401   32.5964   22.2604 H           1 LEU       0.0232
     19 H10        29.8215   31.4795   21.1821 H           1 LEU       0.0232
     20 H11        25.9258   30.2734   22.6878 H           1 LEU       0.0232
     21 H12        26.4796   31.9151   23.0606 H           1 LEU       0.0232
     22 H13        27.2717   30.5215   23.8157 H           1 LEU       0.0232
@<TRIPOS>BOND
     1     1     2   1
     2     2     3   1
     3     2     5   1
     4     3     4  ar
     5     3     9  ar
     6     5     6   1
     7     6     7   1
     8     6     8   1
     9     1    10   1
    10     1    11   1
    11     1    12   1
    12     2    13   1
    13     5    14   1
    14     5    15   1
    15     6    16   1
    16     7    17   1
    17     7    18   1
    18     7    19   1
    19     8    20   1
    20     8    21   1
    21     8    22   1
@<TRIPOS>SUBSTRUCTURE
     1  LEU      2

