@<TRIPOS>MOLECULE
3f80_ligand_012
    24    23
SMALL
GAST_HUCK
****
This file was generated by PARSER (from files_GN.cpp)

@<TRIPOS>ATOM
      1 N1         22.4397  -20.1068    7.8878 N.2         1 MOL       0.2909
      2 N          22.2087  -14.8656    4.1322 N.4         1 MOL       0.2327
      3 CA         22.2368  -15.3665    5.5144 C.3         1 MOL       0.0283
      4 C          23.3381  -16.3359    5.6473 C.2         1 MOL       0.0844
      5 OXT        24.3015  -16.1616    6.5839 O.co2       1 MOL      -0.5643
      6 O          23.4426  -17.3995    4.8183 O.co2       1 MOL      -0.5643
      7 CB         20.8412  -15.9390    5.8978 C.3         1 MOL       0.0025
      8 CG         20.7617  -16.7149    7.2501 C.3         1 MOL      -0.0441
      9 CD         21.0359  -18.2481    7.1335 C.3         1 MOL      -0.0202
     10 CE         22.1027  -18.7732    8.1330 C.3         1 MOL       0.1665
     11 O2         22.1764  -21.0268    8.7293 O.2         1 MOL       0.1861
     12 O1         23.0204  -20.4164    6.9233 O.2         1 MOL       0.1861
     13 H1         21.4828  -14.1568    4.0492 H           1 MOL       0.2010
     14 H2         22.0079  -15.6113    3.4653 H           1 MOL       0.2010
     15 H3         23.1146  -14.4437    3.9207 H           1 MOL       0.2010
     16 H4         22.4466  -14.5152    6.1704 H           1 MOL       0.1024
     17 H5         20.4611  -16.5696    5.0910 H           1 MOL       0.0339
     18 H6         20.1638  -15.0872    5.9683 H           1 MOL       0.0339
     19 H7         19.7475  -16.5882    7.6445 H           1 MOL       0.0269
     20 H8         21.4360  -16.2472    7.9736 H           1 MOL       0.0269
     21 H9         21.3707  -18.4926    6.1224 H           1 MOL       0.0290
     22 H10        20.1042  -18.7934    7.3041 H           1 MOL       0.0290
     23 H11        23.0077  -18.1596    8.0584 H           1 MOL       0.0652
     24 H12        21.7110  -18.6642    9.1510 H           1 MOL       0.0652
@<TRIPOS>BOND
     1    10     1   1
     2     1    11   2
     3     1    12   2
     4     3     2   1
     5     3     4   1
     6     7     3   1
     7     4     5  ar
     8     4     6  ar
     9     8     7   1
    10     9     8   1
    11     9    10   1
    12     2    13   1
    13     2    14   1
    14     2    15   1
    15     3    16   1
    16     7    17   1
    17     7    18   1
    18     8    19   1
    19     8    20   1
    20     9    21   1
    21     9    22   1
    22    10    23   1
    23    10    24   1
@<TRIPOS>SUBSTRUCTURE
     1  MOL      3

