@<TRIPOS>MOLECULE
3f80_ligand_002
    24    23
SMALL
GAST_HUCK
****
This file was generated by PARSER (from files_GN.cpp)

@<TRIPOS>ATOM
      1 N1         21.9981  -15.4348   10.0269 N.2         1 MOL       0.2909
      2 N          27.4491  -13.5598    7.9735 N.4         1 MOL       0.2327
      3 CA         26.2993  -13.8303    7.0927 C.3         1 MOL       0.0283
      4 C          25.5989  -12.5455    6.8701 C.2         1 MOL       0.0844
      5 OXT        26.2729  -11.4891    6.3663 O.co2       1 MOL      -0.5643
      6 O          24.3280  -12.3339    7.2736 O.co2       1 MOL      -0.5643
      7 CB         25.4513  -14.9666    7.7361 C.3         1 MOL       0.0025
      8 CG         24.1883  -15.4364    6.9399 C.3         1 MOL      -0.0441
      9 CD         22.8517  -15.2680    7.7176 C.3         1 MOL      -0.0202
     10 CE         22.7510  -16.0856    9.0436 C.3         1 MOL       0.1665
     11 O2         22.3988  -15.3644   11.2303 O.2         1 MOL       0.1861
     12 O1         20.9531  -14.9722    9.7873 O.2         1 MOL       0.1861
     13 H1         27.9647  -14.4209    8.1471 H           1 MOL       0.2010
     14 H2         27.1208  -13.1789    8.8648 H           1 MOL       0.2010
     15 H3         28.0870  -12.8967    7.5298 H           1 MOL       0.2010
     16 H4         26.6735  -14.1791    6.1270 H           1 MOL       0.1024
     17 H5         25.1724  -14.6383    8.7409 H           1 MOL       0.0339
     18 H6         26.1033  -15.8354    7.8643 H           1 MOL       0.0339
     19 H7         24.2982  -16.4881    6.6594 H           1 MOL       0.0269
     20 H8         24.1089  -14.8750    6.0043 H           1 MOL       0.0269
     21 H9         22.0308  -15.5730    7.0624 H           1 MOL       0.0290
     22 H10        22.7088  -14.2071    7.9295 H           1 MOL       0.0290
     23 H11        22.2921  -17.0549    8.8301 H           1 MOL       0.0652
     24 H12        23.7494  -16.2963    9.4361 H           1 MOL       0.0652
@<TRIPOS>BOND
     1    10     1   1
     2     1    11   2
     3     1    12   2
     4     3     2   1
     5     3     4   1
     6     7     3   1
     7     4     5  ar
     8     4     6  ar
     9     8     7   1
    10     9     8   1
    11     9    10   1
    12     2    13   1
    13     2    14   1
    14     2    15   1
    15     3    16   1
    16     7    17   1
    17     7    18   1
    18     8    19   1
    19     8    20   1
    20     9    21   1
    21     9    22   1
    22    10    23   1
    23    10    24   1
@<TRIPOS>SUBSTRUCTURE
     1  MOL      3

