@<TRIPOS>MOLECULE
3f80_ligand_011
    24    23
SMALL
GAST_HUCK
****
This file was generated by PARSER (from files_GN.cpp)

@<TRIPOS>ATOM
      1 N1         20.4704  -15.2274    6.7874 N.2         1 MOL       0.2909
      2 N          26.5900  -13.5420    6.1571 N.4         1 MOL       0.2327
      3 CA         25.5797  -13.1916    7.1678 C.3         1 MOL       0.0283
      4 C          26.0848  -13.5268    8.5183 C.2         1 MOL       0.0844
      5 OXT        25.5343  -14.4985    9.2798 O.co2       1 MOL      -0.5643
      6 O          27.1073  -12.8140    9.0440 O.co2       1 MOL      -0.5643
      7 CB         24.1782  -13.7870    6.8201 C.3         1 MOL       0.0025
      8 CG         24.1660  -15.2910    6.4047 C.3         1 MOL      -0.0441
      9 CD         22.8831  -16.0661    6.8158 C.3         1 MOL      -0.0202
     10 CE         21.5807  -15.6578    6.0441 C.3         1 MOL       0.1665
     11 O2         20.4835  -15.0524    8.0455 O.2         1 MOL       0.1861
     12 O1         19.4782  -14.9616    6.2342 O.2         1 MOL       0.1861
     13 H1         26.2552  -13.2346    5.2396 H           1 MOL       0.2010
     14 H2         26.7326  -14.5563    6.1397 H           1 MOL       0.2010
     15 H3         27.4804  -13.0835    6.3753 H           1 MOL       0.2010
     16 H4         25.4731  -12.0998    7.1433 H           1 MOL       0.1024
     17 H5         23.7558  -13.2026    5.9950 H           1 MOL       0.0339
     18 H6         23.5201  -13.6200    7.6742 H           1 MOL       0.0339
     19 H7         25.0167  -15.8063    6.8608 H           1 MOL       0.0269
     20 H8         24.2936  -15.3657    5.3213 H           1 MOL       0.0269
     21 H9         22.7669  -15.9676    7.8939 H           1 MOL       0.0290
     22 H10        23.0689  -17.1304    6.6305 H           1 MOL       0.0290
     23 H11        21.8172  -14.8726    5.3167 H           1 MOL       0.0652
     24 H12        21.2591  -16.5262    5.4551 H           1 MOL       0.0652
@<TRIPOS>BOND
     1    10     1   1
     2     1    11   2
     3     1    12   2
     4     3     2   1
     5     3     4   1
     6     7     3   1
     7     4     5  ar
     8     4     6  ar
     9     8     7   1
    10     9     8   1
    11     9    10   1
    12     2    13   1
    13     2    14   1
    14     2    15   1
    15     3    16   1
    16     7    17   1
    17     7    18   1
    18     8    19   1
    19     8    20   1
    20     9    21   1
    21     9    22   1
    22    10    23   1
    23    10    24   1
@<TRIPOS>SUBSTRUCTURE
     1  MOL      3

