@<TRIPOS>MOLECULE
3f80_ligand_009
    24    23
SMALL
GAST_HUCK
****
This file was generated by PARSER (from files_GN.cpp)

@<TRIPOS>ATOM
      1 N1         21.9937  -15.8176   10.3035 N.2         1 MOL       0.2909
      2 N          21.3054  -15.4223    4.1168 N.4         1 MOL       0.2327
      3 CA         22.6291  -15.6239    4.7222 C.3         1 MOL       0.0283
      4 C          23.1744  -16.8889    4.1931 C.2         1 MOL       0.0844
      5 OXT        23.5307  -16.9395    2.8944 O.co2       1 MOL      -0.5643
      6 O          22.7853  -18.0628    4.7349 O.co2       1 MOL      -0.5643
      7 CB         22.5236  -15.5396    6.2726 C.3         1 MOL       0.0025
      8 CG         23.7592  -16.0755    7.0492 C.3         1 MOL      -0.0441
      9 CD         23.7419  -15.7159    8.5576 C.3         1 MOL      -0.0202
     10 CE         22.7879  -16.5812    9.4436 C.3         1 MOL       0.1665
     11 O2         22.4240  -15.4703   11.4465 O.2         1 MOL       0.1861
     12 O1         21.0201  -15.2988    9.9167 O.2         1 MOL       0.1861
     13 H1         20.9304  -14.5081    4.3667 H           1 MOL       0.2010
     14 H2         20.6724  -16.1563    4.4487 H           1 MOL       0.2010
     15 H3         21.3893  -15.4778    3.1070 H           1 MOL       0.2010
     16 H4         23.2721  -14.8124    4.3788 H           1 MOL       0.1024
     17 H5         21.6377  -16.0912    6.5884 H           1 MOL       0.0339
     18 H6         22.3678  -14.4904    6.5406 H           1 MOL       0.0339
     19 H7         24.6623  -15.6567    6.6048 H           1 MOL       0.0269
     20 H8         23.8317  -17.1562    6.9719 H           1 MOL       0.0269
     21 H9         23.4990  -14.6531    8.6567 H           1 MOL       0.0290
     22 H10        24.7652  -15.8220    8.9440 H           1 MOL       0.0290
     23 H11        22.1478  -17.2022    8.8180 H           1 MOL       0.0652
     24 H12        23.3837  -17.2823   10.0401 H           1 MOL       0.0652
@<TRIPOS>BOND
     1    10     1   1
     2     1    11   2
     3     1    12   2
     4     3     2   1
     5     3     4   1
     6     7     3   1
     7     4     5  ar
     8     4     6  ar
     9     8     7   1
    10     9     8   1
    11     9    10   1
    12     2    13   1
    13     2    14   1
    14     2    15   1
    15     3    16   1
    16     7    17   1
    17     7    18   1
    18     8    19   1
    19     8    20   1
    20     9    21   1
    21     9    22   1
    22    10    23   1
    23    10    24   1
@<TRIPOS>SUBSTRUCTURE
     1  MOL      3

