@<TRIPOS>MOLECULE
3f80_ligand_005
    24    23
SMALL
GAST_HUCK
****
This file was generated by PARSER (from files_GN.cpp)

@<TRIPOS>ATOM
      1 N1         26.8567  -12.3266    7.5841 N.2         1 MOL       0.2909
      2 N          22.2723  -14.9636    4.0382 N.4         1 MOL       0.2327
      3 CA         22.5319  -15.6404    5.3311 C.3         1 MOL       0.0283
      4 C          21.2894  -16.2628    5.8500 C.2         1 MOL       0.0844
      5 OXT        20.0907  -15.6740    5.6215 O.co2       1 MOL      -0.5643
      6 O          21.3674  -17.0980    6.9089 O.co2       1 MOL      -0.5643
      7 CB         23.1877  -14.6545    6.3601 C.3         1 MOL       0.0025
      8 CG         24.4851  -15.1520    7.0817 C.3         1 MOL      -0.0441
      9 CD         25.7820  -14.3659    6.7420 C.3         1 MOL      -0.0202
     10 CE         25.7021  -12.8231    6.9849 C.3         1 MOL       0.1665
     11 O2         27.0575  -12.5085    8.8252 O.2         1 MOL       0.1861
     12 O1         27.5938  -11.6303    7.0059 O.2         1 MOL       0.1861
     13 H1         23.1360  -14.5023    3.7342 H           1 MOL       0.2010
     14 H2         21.5406  -14.2547    4.1476 H           1 MOL       0.2010
     15 H3         21.9795  -15.6367    3.3209 H           1 MOL       0.2010
     16 H4         23.2154  -16.4581    5.0899 H           1 MOL       0.1024
     17 H5         22.4665  -14.3831    7.1343 H           1 MOL       0.0339
     18 H6         23.3992  -13.7121    5.8417 H           1 MOL       0.0339
     19 H7         24.6673  -16.2088    6.8713 H           1 MOL       0.0269
     20 H8         24.3403  -15.0850    8.1658 H           1 MOL       0.0269
     21 H9         26.0362  -14.5446    5.6909 H           1 MOL       0.0290
     22 H10        26.5838  -14.7985    7.3422 H           1 MOL       0.0290
     23 H11        25.5232  -12.3247    6.0267 H           1 MOL       0.0652
     24 H12        24.8585  -12.5709    7.6331 H           1 MOL       0.0652
@<TRIPOS>BOND
     1    10     1   1
     2     1    11   2
     3     1    12   2
     4     3     2   1
     5     3     4   1
     6     7     3   1
     7     4     5  ar
     8     4     6  ar
     9     8     7   1
    10     9     8   1
    11     9    10   1
    12     2    13   1
    13     2    14   1
    14     2    15   1
    15     3    16   1
    16     7    17   1
    17     7    18   1
    18     8    19   1
    19     8    20   1
    20     9    21   1
    21     9    22   1
    22    10    23   1
    23    10    24   1
@<TRIPOS>SUBSTRUCTURE
     1  MOL      3

