@<TRIPOS>MOLECULE
3fcq_ligand_045
    23    23
SMALL
GAST_HUCK
****
This file was generated by PARSER (from files_GN.cpp)

@<TRIPOS>ATOM
      1 O12        40.1230   34.7890   -5.1934 O.2         1 M3S      -0.3640
      2 C11        40.8621   35.6075   -5.9775 C.2         1 M3S       0.2533
      3 O1         40.5273   36.9142   -6.1622 O.3         1 M3S      -0.2144
      4 C2         39.4231   37.5653   -5.6795 C.ar        1 M3S       0.1394
      5 C7         38.1493   37.3485   -6.2703 C.ar        1 M3S      -0.0078
      6 C1         37.9719   36.3965   -7.4027 C.3         1 M3S      -0.0317
      7 C6         37.0389   38.0830   -5.8003 C.ar        1 M3S      -0.0652
      8 C5         37.1870   39.0072   -4.7562 C.ar        1 M3S      -0.0752
      9 C4         38.4427   39.2077   -4.1639 C.ar        1 M3S      -0.0620
     10 C3         39.5792   38.5028   -4.6248 C.ar        1 M3S       0.0373
     11 C8         40.8357   38.7432   -4.0062 C.2         1 M3S       0.0573
     12 O10        41.9993   38.6233   -4.6771 O.co2       1 M3S      -0.5642
     13 O9         40.9213   39.1773   -2.7311 O.co2       1 M3S      -0.5642
     14 C13        42.0570   35.0992   -6.6561 C.3         1 M3S       0.0413
     15 H1         36.9676   36.4358   -7.8262 H           1 M3S       0.0370
     16 H2         38.1509   35.3804   -7.0567 H           1 M3S       0.0370
     17 H3         38.6786   36.6310   -8.1980 H           1 M3S       0.0370
     18 H4         36.1141   37.9666   -6.2214 H           1 M3S       0.0549
     19 H5         36.3777   39.5416   -4.4256 H           1 M3S       0.0520
     20 H6         38.5212   39.8963   -3.4108 H           1 M3S       0.0566
     21 H7         42.2020   34.0404   -6.4498 H           1 M3S       0.0485
     22 H8         42.9360   35.6464   -6.3215 H           1 M3S       0.0485
     23 H9         41.9450   35.2305   -7.7306 H           1 M3S       0.0485
@<TRIPOS>BOND
     1     1     2   2
     2     2     3   1
     3     2    14   1
     4     3     4   1
     5     4     5  ar
     6     4    10  ar
     7     5     6   1
     8     5     7  ar
     9     7     8  ar
    10     8     9  ar
    11     9    10  ar
    12    10    11   1
    13    11    12  ar
    14    11    13  ar
    15     6    15   1
    16     6    16   1
    17     6    17   1
    18     7    18   1
    19     8    19   1
    20     9    20   1
    21    14    21   1
    22    14    22   1
    23    14    23   1
@<TRIPOS>SUBSTRUCTURE
     1  M3S      2

