@<TRIPOS>MOLECULE
3fcq_ligand_011
    23    23
SMALL
GAST_HUCK
****
This file was generated by PARSER (from files_GN.cpp)

@<TRIPOS>ATOM
      1 O12        36.8752   30.9327   -1.7455 O.2         1 M3S      -0.3640
      2 C11        36.0256   31.9038   -2.1499 C.2         1 M3S       0.2533
      3 O1         34.7716   31.6192   -2.5943 O.3         1 M3S      -0.2144
      4 C2         34.1322   30.4097   -2.6021 C.ar        1 M3S       0.1394
      5 C7         33.6295   29.9356   -3.8359 C.ar        1 M3S      -0.0078
      6 C1         33.6914   30.7741   -5.0646 C.3         1 M3S      -0.0317
      7 C6         33.1186   28.6170   -3.9176 C.ar        1 M3S      -0.0652
      8 C5         33.0685   27.8013   -2.7692 C.ar        1 M3S      -0.0752
      9 C4         33.5159   28.2959   -1.5377 C.ar        1 M3S      -0.0620
     10 C3         34.0103   29.6196   -1.4305 C.ar        1 M3S       0.0373
     11 C8         34.3337   30.1327   -0.1653 C.2         1 M3S       0.0573
     12 O10        35.3887   29.6459    0.5416 O.co2       1 M3S      -0.5642
     13 O9         33.6913   31.2197    0.3271 O.co2       1 M3S      -0.5642
     14 C13        36.4972   33.2885   -2.2055 C.3         1 M3S       0.0413
     15 H1         33.2545   30.2856   -5.9362 H           1 M3S       0.0370
     16 H2         34.7283   31.0226   -5.2966 H           1 M3S       0.0370
     17 H3         33.1383   31.7098   -4.9003 H           1 M3S       0.0370
     18 H4         32.7901   28.2372   -4.8080 H           1 M3S       0.0549
     19 H5         32.7013   26.8530   -2.8397 H           1 M3S       0.0520
     20 H6         33.4423   27.6960   -0.7103 H           1 M3S       0.0566
     21 H7         37.5310   33.3676   -1.8671 H           1 M3S       0.0485
     22 H8         35.8606   33.8922   -1.5666 H           1 M3S       0.0485
     23 H9         36.4343   33.6601   -3.2355 H           1 M3S       0.0485
@<TRIPOS>BOND
     1     1     2   2
     2     2     3   1
     3     2    14   1
     4     3     4   1
     5     4     5  ar
     6     4    10  ar
     7     5     6   1
     8     5     7  ar
     9     7     8  ar
    10     8     9  ar
    11     9    10  ar
    12    10    11   1
    13    11    12  ar
    14    11    13  ar
    15     6    15   1
    16     6    16   1
    17     6    17   1
    18     7    18   1
    19     8    19   1
    20     9    20   1
    21    14    21   1
    22    14    22   1
    23    14    23   1
@<TRIPOS>SUBSTRUCTURE
     1  M3S      2

