@<TRIPOS>MOLECULE
3fcq_ligand_022
    23    23
SMALL
GAST_HUCK
****
This file was generated by PARSER (from files_GN.cpp)

@<TRIPOS>ATOM
      1 O12        38.5327   32.0486   -0.4283 O.2         1 M3S      -0.3640
      2 C11        37.9006   33.2419   -0.3115 C.2         1 M3S       0.2533
      3 O1         36.9315   33.6154   -1.1894 O.3         1 M3S      -0.2144
      4 C2         36.4240   32.8758   -2.2265 C.ar        1 M3S       0.1394
      5 C7         36.7481   33.2484   -3.5543 C.ar        1 M3S      -0.0078
      6 C1         37.6588   34.3950   -3.8079 C.3         1 M3S      -0.0317
      7 C6         36.1907   32.5197   -4.6291 C.ar        1 M3S      -0.0652
      8 C5         35.3063   31.4571   -4.3889 C.ar        1 M3S      -0.0752
      9 C4         34.9630   31.1081   -3.0740 C.ar        1 M3S      -0.0620
     10 C3         35.5181   31.8134   -1.9897 C.ar        1 M3S       0.0373
     11 C8         35.1262   31.4668   -0.6858 C.2         1 M3S       0.0573
     12 O10        35.9640   30.7544    0.1103 O.co2       1 M3S      -0.5642
     13 O9         33.8671   31.7228   -0.2541 O.co2       1 M3S      -0.5642
     14 C13        38.2975   34.1792    0.7432 C.3         1 M3S       0.0413
     15 H1         37.8201   34.5608   -4.8757 H           1 M3S       0.0370
     16 H2         38.6297   34.2068   -3.3422 H           1 M3S       0.0370
     17 H3         37.2319   35.3054   -3.3851 H           1 M3S       0.0370
     18 H4         36.4243   32.7684   -5.5975 H           1 M3S       0.0549
     19 H5         34.9072   30.9461   -5.1778 H           1 M3S       0.0520
     20 H6         34.3035   30.3384   -2.9262 H           1 M3S       0.0566
     21 H7         39.0975   33.7582    1.3495 H           1 M3S       0.0485
     22 H8         37.4405   34.3979    1.3817 H           1 M3S       0.0485
     23 H9         38.6544   35.1091    0.2944 H           1 M3S       0.0485
@<TRIPOS>BOND
     1     1     2   2
     2     2     3   1
     3     2    14   1
     4     3     4   1
     5     4     5  ar
     6     4    10  ar
     7     5     6   1
     8     5     7  ar
     9     7     8  ar
    10     8     9  ar
    11     9    10  ar
    12    10    11   1
    13    11    12  ar
    14    11    13  ar
    15     6    15   1
    16     6    16   1
    17     6    17   1
    18     7    18   1
    19     8    19   1
    20     9    20   1
    21    14    21   1
    22    14    22   1
    23    14    23   1
@<TRIPOS>SUBSTRUCTURE
     1  M3S      2

