@<TRIPOS>MOLECULE
3fcq_ligand_023
    23    23
SMALL
GAST_HUCK
****
This file was generated by PARSER (from files_GN.cpp)

@<TRIPOS>ATOM
      1 O12        33.4913   31.6103   -0.6124 O.2         1 M3S      -0.3640
      2 C11        34.7437   31.6441   -1.1300 C.2         1 M3S       0.2533
      3 O1         35.3130   30.5394   -1.6808 O.3         1 M3S      -0.2144
      4 C2         34.7550   29.2966   -1.7927 C.ar        1 M3S       0.1394
      5 C7         35.3362   28.2529   -1.0144 C.ar        1 M3S      -0.0078
      6 C1         36.4750   28.5182   -0.1012 C.3         1 M3S      -0.0317
      7 C6         34.8164   26.9457   -1.1215 C.ar        1 M3S      -0.0652
      8 C5         33.7423   26.6741   -1.9764 C.ar        1 M3S      -0.0752
      9 C4         33.1939   27.6957   -2.7656 C.ar        1 M3S      -0.0620
     10 C3         33.6938   29.0200   -2.7103 C.ar        1 M3S       0.0373
     11 C8         33.1496   29.9825   -3.6113 C.2         1 M3S       0.0573
     12 O10        33.3059   31.3110   -3.4741 O.co2       1 M3S      -0.5642
     13 O9         32.5123   29.6019   -4.7482 O.co2       1 M3S      -0.5642
     14 C13        35.4905   32.9039   -1.1741 C.3         1 M3S       0.0413
     15 H1         36.8237   27.6130    0.4018 H           1 M3S       0.0370
     16 H2         36.1824   29.2369    0.6649 H           1 M3S       0.0370
     17 H3         37.3081   28.9252   -0.6728 H           1 M3S       0.0370
     18 H4         35.2171   26.1775   -0.5812 H           1 M3S       0.0549
     19 H5         33.3736   25.7229   -2.0515 H           1 M3S       0.0520
     20 H6         32.4299   27.4472   -3.3985 H           1 M3S       0.0566
     21 H7         34.8660   33.7289   -0.8366 H           1 M3S       0.0485
     22 H8         35.8116   33.1055   -2.1977 H           1 M3S       0.0485
     23 H9         36.3686   32.8332   -0.5323 H           1 M3S       0.0485
@<TRIPOS>BOND
     1     1     2   2
     2     2     3   1
     3     2    14   1
     4     3     4   1
     5     4     5  ar
     6     4    10  ar
     7     5     6   1
     8     5     7  ar
     9     7     8  ar
    10     8     9  ar
    11     9    10  ar
    12    10    11   1
    13    11    12  ar
    14    11    13  ar
    15     6    15   1
    16     6    16   1
    17     6    17   1
    18     7    18   1
    19     8    19   1
    20     9    20   1
    21    14    21   1
    22    14    22   1
    23    14    23   1
@<TRIPOS>SUBSTRUCTURE
     1  M3S      2

