@<TRIPOS>MOLECULE
3fcq_ligand_029
    23    23
SMALL
GAST_HUCK
****
This file was generated by PARSER (from files_GN.cpp)

@<TRIPOS>ATOM
      1 O12        40.3632   39.2332   -2.6647 O.2         1 M3S      -0.3640
      2 C11        40.4282   38.1789   -3.5152 C.2         1 M3S       0.2533
      3 O1         41.1751   37.0795   -3.2303 O.3         1 M3S      -0.2144
      4 C2         41.9618   36.8971   -2.1237 C.ar        1 M3S       0.1394
      5 C7         41.5113   36.0043   -1.1153 C.ar        1 M3S      -0.0078
      6 C1         40.2133   35.3004   -1.2601 C.3         1 M3S      -0.0317
      7 C6         42.3112   35.8003    0.0318 C.ar        1 M3S      -0.0652
      8 C5         43.5457   36.4592    0.1680 C.ar        1 M3S      -0.0752
      9 C4         44.0134   37.2995   -0.8559 C.ar        1 M3S      -0.0620
     10 C3         43.2317   37.5194   -2.0121 C.ar        1 M3S       0.0373
     11 C8         43.7695   38.2905   -3.0531 C.2         1 M3S       0.0573
     12 O10        44.7096   37.7581   -3.8611 O.co2       1 M3S      -0.5642
     13 O9         43.3306   39.5437   -3.2869 O.co2       1 M3S      -0.5642
     14 C13        39.6007   38.1733   -4.7284 C.3         1 M3S       0.0413
     15 H1         39.9996   34.6457   -0.4132 H           1 M3S       0.0370
     16 H2         40.2265   34.6918   -2.1662 H           1 M3S       0.0370
     17 H3         39.4059   36.0302   -1.3378 H           1 M3S       0.0370
     18 H4         42.0044   35.1752    0.7799 H           1 M3S       0.0549
     19 H5         44.1205   36.3014    1.0010 H           1 M3S       0.0520
     20 H6         44.9290   37.7448   -0.7482 H           1 M3S       0.0566
     21 H7         39.0371   39.1018   -4.8224 H           1 M3S       0.0485
     22 H8         38.9013   37.3388   -4.6790 H           1 M3S       0.0485
     23 H9         40.2335   38.0556   -5.6075 H           1 M3S       0.0485
@<TRIPOS>BOND
     1     1     2   2
     2     2     3   1
     3     2    14   1
     4     3     4   1
     5     4     5  ar
     6     4    10  ar
     7     5     6   1
     8     5     7  ar
     9     7     8  ar
    10     8     9  ar
    11     9    10  ar
    12    10    11   1
    13    11    12  ar
    14    11    13  ar
    15     6    15   1
    16     6    16   1
    17     6    17   1
    18     7    18   1
    19     8    19   1
    20     9    20   1
    21    14    21   1
    22    14    22   1
    23    14    23   1
@<TRIPOS>SUBSTRUCTURE
     1  M3S      2

