@<TRIPOS>MOLECULE
3fcq_ligand_028
    23    23
SMALL
GAST_HUCK
****
This file was generated by PARSER (from files_GN.cpp)

@<TRIPOS>ATOM
      1 O12        30.6010   40.4729  -12.4318 O.2         1 M3S      -0.3640
      2 C11        29.4015   40.8133  -11.9073 C.2         1 M3S       0.2533
      3 O1         28.9693   40.2904  -10.7306 O.3         1 M3S      -0.2144
      4 C2         29.6210   39.4978   -9.8185 C.ar        1 M3S       0.1394
      5 C7         28.9479   38.3267   -9.3809 C.ar        1 M3S      -0.0078
      6 C1         27.6039   37.9872   -9.9110 C.3         1 M3S      -0.0317
      7 C6         29.5706   37.4865   -8.4277 C.ar        1 M3S      -0.0652
      8 C5         30.8301   37.8123   -7.9020 C.ar        1 M3S      -0.0752
      9 C4         31.4790   38.9897   -8.3093 C.ar        1 M3S      -0.0620
     10 C3         30.8788   39.8461   -9.2579 C.ar        1 M3S       0.0373
     11 C8         31.5332   41.0528   -9.5715 C.2         1 M3S       0.0573
     12 O10        31.6191   42.0028   -8.6193 O.co2       1 M3S      -0.5642
     13 O9         32.5164   41.0161  -10.5021 O.co2       1 M3S      -0.5642
     14 C13        28.4820   41.6714  -12.6638 C.3         1 M3S       0.0413
     15 H1         27.1944   37.0793   -9.4657 H           1 M3S       0.0370
     16 H2         27.6651   37.8410  -10.9912 H           1 M3S       0.0370
     17 H3         26.9110   38.8062   -9.7030 H           1 M3S       0.0370
     18 H4         29.1105   36.6300   -8.1094 H           1 M3S       0.0549
     19 H5         31.2645   37.2086   -7.2039 H           1 M3S       0.0520
     20 H6         32.3852   39.2239   -7.8942 H           1 M3S       0.0566
     21 H7         28.9297   41.9657  -13.6139 H           1 M3S       0.0485
     22 H8         28.2616   42.5678  -12.0828 H           1 M3S       0.0485
     23 H9         27.5480   41.1392  -12.8598 H           1 M3S       0.0485
@<TRIPOS>BOND
     1     1     2   2
     2     2     3   1
     3     2    14   1
     4     3     4   1
     5     4     5  ar
     6     4    10  ar
     7     5     6   1
     8     5     7  ar
     9     7     8  ar
    10     8     9  ar
    11     9    10  ar
    12    10    11   1
    13    11    12  ar
    14    11    13  ar
    15     6    15   1
    16     6    16   1
    17     6    17   1
    18     7    18   1
    19     8    19   1
    20     9    20   1
    21    14    21   1
    22    14    22   1
    23    14    23   1
@<TRIPOS>SUBSTRUCTURE
     1  M3S      2

