@<TRIPOS>MOLECULE
3fcq_ligand_019
    23    23
SMALL
GAST_HUCK
****
This file was generated by PARSER (from files_GN.cpp)

@<TRIPOS>ATOM
      1 O12        41.1576   36.3374   -2.8925 O.2         1 M3S      -0.3640
      2 C11        40.6685   37.5215   -3.3472 C.2         1 M3S       0.2533
      3 O1         40.9537   37.9615   -4.6077 O.3         1 M3S      -0.2144
      4 C2         41.7705   37.3201   -5.5011 C.ar        1 M3S       0.1394
      5 C7         41.1684   36.4815   -6.4752 C.ar        1 M3S      -0.0078
      6 C1         39.6955   36.3170   -6.5295 C.3         1 M3S      -0.0317
      7 C6         41.9937   35.7775   -7.3795 C.ar        1 M3S      -0.0652
      8 C5         43.3893   35.9147   -7.3336 C.ar        1 M3S      -0.0752
      9 C4         43.9793   36.7423   -6.3660 C.ar        1 M3S      -0.0620
     10 C3         43.1860   37.4593   -5.4382 C.ar        1 M3S       0.0373
     11 C8         43.8196   38.3107   -4.4973 C.2         1 M3S       0.0573
     12 O10        43.2884   39.5022   -4.1348 O.co2       1 M3S      -0.5642
     13 O9         45.0098   37.9788   -3.9451 O.co2       1 M3S      -0.5642
     14 C13        39.7816   38.3231   -2.4996 C.3         1 M3S       0.0413
     15 H1         39.3781   35.6686   -7.3478 H           1 M3S       0.0370
     16 H2         39.2250   37.2911   -6.6667 H           1 M3S       0.0370
     17 H3         39.3369   35.8867   -5.5943 H           1 M3S       0.0370
     18 H4         41.5857   35.1627   -8.0857 H           1 M3S       0.0549
     19 H5         43.9804   35.4139   -8.0032 H           1 M3S       0.0520
     20 H6         45.0004   36.8295   -6.3631 H           1 M3S       0.0566
     21 H7         39.5966   37.8234   -1.5464 H           1 M3S       0.0485
     22 H8         38.8301   38.4748   -3.0095 H           1 M3S       0.0485
     23 H9         40.2409   39.2920   -2.3037 H           1 M3S       0.0485
@<TRIPOS>BOND
     1     1     2   2
     2     2     3   1
     3     2    14   1
     4     3     4   1
     5     4     5  ar
     6     4    10  ar
     7     5     6   1
     8     5     7  ar
     9     7     8  ar
    10     8     9  ar
    11     9    10  ar
    12    10    11   1
    13    11    12  ar
    14    11    13  ar
    15     6    15   1
    16     6    16   1
    17     6    17   1
    18     7    18   1
    19     8    19   1
    20     9    20   1
    21    14    21   1
    22    14    22   1
    23    14    23   1
@<TRIPOS>SUBSTRUCTURE
     1  M3S      2

