@<TRIPOS>MOLECULE
3fcq_ligand_035
    23    23
SMALL
GAST_HUCK
****
This file was generated by PARSER (from files_GN.cpp)

@<TRIPOS>ATOM
      1 O12        31.9031   41.9308   -8.1603 O.2         1 M3S      -0.3640
      2 C11        32.5072   40.9472   -8.8681 C.2         1 M3S       0.2533
      3 O1         32.1190   40.6488  -10.1349 O.3         1 M3S      -0.2144
      4 C2         31.0826   41.2027  -10.8363 C.ar        1 M3S       0.1394
      5 C7         29.8597   40.4859  -10.9321 C.ar        1 M3S      -0.0078
      6 C1         29.6692   39.2126  -10.1941 C.3         1 M3S      -0.0317
      7 C6         28.8177   41.0039  -11.7362 C.ar        1 M3S      -0.0652
      8 C5         28.9939   42.2008  -12.4487 C.ar        1 M3S      -0.0752
      9 C4         30.2031   42.9109  -12.3484 C.ar        1 M3S      -0.0620
     10 C3         31.2499   42.4250  -11.5341 C.ar        1 M3S       0.0373
     11 C8         32.4203   43.1870  -11.4001 C.2         1 M3S       0.0573
     12 O10        33.5761   42.7945  -11.9790 O.co2       1 M3S      -0.5642
     13 O9         32.4069   44.2934  -10.6250 O.co2       1 M3S      -0.5642
     14 C13        33.5745   40.1448   -8.2550 C.3         1 M3S       0.0413
     15 H1         28.6747   38.7877  -10.3432 H           1 M3S       0.0370
     16 H2         29.8023   39.3847   -9.1243 H           1 M3S       0.0370
     17 H3         30.4063   38.4819  -10.5303 H           1 M3S       0.0370
     18 H4         27.9226   40.5162  -11.8074 H           1 M3S       0.0549
     19 H5         28.2357   42.5602  -13.0344 H           1 M3S       0.0520
     20 H6         30.3108   43.7821  -12.8756 H           1 M3S       0.0566
     21 H7         33.7913   40.4929   -7.2433 H           1 M3S       0.0485
     22 H8         34.4783   40.2270   -8.8603 H           1 M3S       0.0485
     23 H9         33.2730   39.0969   -8.2056 H           1 M3S       0.0485
@<TRIPOS>BOND
     1     1     2   2
     2     2     3   1
     3     2    14   1
     4     3     4   1
     5     4     5  ar
     6     4    10  ar
     7     5     6   1
     8     5     7  ar
     9     7     8  ar
    10     8     9  ar
    11     9    10  ar
    12    10    11   1
    13    11    12  ar
    14    11    13  ar
    15     6    15   1
    16     6    16   1
    17     6    17   1
    18     7    18   1
    19     8    19   1
    20     9    20   1
    21    14    21   1
    22    14    22   1
    23    14    23   1
@<TRIPOS>SUBSTRUCTURE
     1  M3S      2

