@<TRIPOS>MOLECULE
3fcq_ligand_014
    23    23
SMALL
GAST_HUCK
****
This file was generated by PARSER (from files_GN.cpp)

@<TRIPOS>ATOM
      1 O12        33.6495   42.5504  -11.9119 O.2         1 M3S      -0.3640
      2 C11        32.7172   43.5409  -11.8988 C.2         1 M3S       0.2533
      3 O1         31.3946   43.2846  -11.6909 O.3         1 M3S      -0.2144
      4 C2         30.7337   42.1470  -11.3027 C.ar        1 M3S       0.1394
      5 C7         29.5225   41.8302  -11.9745 C.ar        1 M3S      -0.0078
      6 C1         29.0158   42.6707  -13.0782 C.3         1 M3S      -0.0317
      7 C6         28.7922   40.6791  -11.5826 C.ar        1 M3S      -0.0652
      8 C5         29.2274   39.8696  -10.5225 C.ar        1 M3S      -0.0752
      9 C4         30.4086   40.1980   -9.8357 C.ar        1 M3S      -0.0620
     10 C3         31.1613   41.3374  -10.2131 C.ar        1 M3S       0.0373
     11 C8         32.2729   41.7122   -9.4401 C.2         1 M3S       0.0573
     12 O10        33.4855   41.1517   -9.6869 O.co2       1 M3S      -0.5642
     13 O9         32.0591   42.2404   -8.2114 O.co2       1 M3S      -0.5642
     14 C13        33.1343   44.9049  -12.2475 C.3         1 M3S       0.0413
     15 H1         28.0779   42.2930  -13.4883 H           1 M3S       0.0370
     16 H2         29.7405   42.7126  -13.8946 H           1 M3S       0.0370
     17 H3         28.8336   43.6823  -12.7189 H           1 M3S       0.0370
     18 H4         27.9167   40.4340  -12.0598 H           1 M3S       0.0549
     19 H5         28.6723   39.0552  -10.2496 H           1 M3S       0.0520
     20 H6         30.6897   39.6086   -9.0440 H           1 M3S       0.0566
     21 H7         34.2091   44.9490  -12.4600 H           1 M3S       0.0485
     22 H8         32.9198   45.5644  -11.4076 H           1 M3S       0.0485
     23 H9         32.5894   45.2506  -13.1272 H           1 M3S       0.0485
@<TRIPOS>BOND
     1     1     2   2
     2     2     3   1
     3     2    14   1
     4     3     4   1
     5     4     5  ar
     6     4    10  ar
     7     5     6   1
     8     5     7  ar
     9     7     8  ar
    10     8     9  ar
    11     9    10  ar
    12    10    11   1
    13    11    12  ar
    14    11    13  ar
    15     6    15   1
    16     6    16   1
    17     6    17   1
    18     7    18   1
    19     8    19   1
    20     9    20   1
    21    14    21   1
    22    14    22   1
    23    14    23   1
@<TRIPOS>SUBSTRUCTURE
     1  M3S      2

