@<TRIPOS>MOLECULE
3fcq_ligand_036
    23    23
SMALL
GAST_HUCK
****
This file was generated by PARSER (from files_GN.cpp)

@<TRIPOS>ATOM
      1 O12        42.0697   39.1612   -2.3962 O.2         1 M3S      -0.3640
      2 C11        41.9536   38.2487   -3.3924 C.2         1 M3S       0.2533
      3 O1         40.8601   37.4445   -3.4867 O.3         1 M3S      -0.2144
      4 C2         39.7916   37.4550   -2.6304 C.ar        1 M3S       0.1394
      5 C7         39.8359   36.7274   -1.4130 C.ar        1 M3S      -0.0078
      6 C1         41.0326   35.9363   -1.0342 C.3         1 M3S      -0.0317
      7 C6         38.7080   36.7615   -0.5630 C.ar        1 M3S      -0.0652
      8 C5         37.5685   37.5115   -0.9015 C.ar        1 M3S      -0.0752
      9 C4         37.5385   38.2459   -2.0978 C.ar        1 M3S      -0.0620
     10 C3         38.6473   38.2167   -2.9680 C.ar        1 M3S       0.0373
     11 C8         38.6143   38.9544   -4.1562 C.2         1 M3S       0.0573
     12 O10        38.9807   40.2526   -4.1309 O.co2       1 M3S      -0.5642
     13 O9         37.9481   38.4725   -5.2269 O.co2       1 M3S      -0.5642
     14 C13        43.0198   38.1134   -4.3908 C.3         1 M3S       0.0413
     15 H1         40.9225   35.4758   -0.0517 H           1 M3S       0.0370
     16 H2         41.9095   36.5836   -1.0027 H           1 M3S       0.0370
     17 H3         41.2011   35.1426   -1.7641 H           1 M3S       0.0370
     18 H4         38.7062   36.2334    0.3109 H           1 M3S       0.0549
     19 H5         36.7671   37.5364   -0.2657 H           1 M3S       0.0520
     20 H6         36.7065   38.8013   -2.3231 H           1 M3S       0.0566
     21 H7         43.8245   38.8205   -4.1839 H           1 M3S       0.0485
     22 H8         42.6099   38.3169   -5.3795 H           1 M3S       0.0485
     23 H9         43.4217   37.0985   -4.3694 H           1 M3S       0.0485
@<TRIPOS>BOND
     1     1     2   2
     2     2     3   1
     3     2    14   1
     4     3     4   1
     5     4     5  ar
     6     4    10  ar
     7     5     6   1
     8     5     7  ar
     9     7     8  ar
    10     8     9  ar
    11     9    10  ar
    12    10    11   1
    13    11    12  ar
    14    11    13  ar
    15     6    15   1
    16     6    16   1
    17     6    17   1
    18     7    18   1
    19     8    19   1
    20     9    20   1
    21    14    21   1
    22    14    22   1
    23    14    23   1
@<TRIPOS>SUBSTRUCTURE
     1  M3S      2

