@<TRIPOS>MOLECULE
3fcq_ligand_017
    23    23
SMALL
GAST_HUCK
****
This file was generated by PARSER (from files_GN.cpp)

@<TRIPOS>ATOM
      1 O12        33.1669   31.3798   -3.3103 O.2         1 M3S      -0.3640
      2 C11        34.1428   30.4809   -3.5822 C.2         1 M3S       0.2533
      3 O1         35.4537   30.8263   -3.5189 O.3         1 M3S      -0.2144
      4 C2         35.9886   32.0293   -3.1322 C.ar        1 M3S       0.1394
      5 C7         36.6804   32.7967   -4.1074 C.ar        1 M3S      -0.0078
      6 C1         36.7380   32.3555   -5.5202 C.3         1 M3S      -0.0317
      7 C6         37.3081   34.0027   -3.7211 C.ar        1 M3S      -0.0652
      8 C5         37.2668   34.4304   -2.3861 C.ar        1 M3S      -0.0752
      9 C4         36.5965   33.6634   -1.4184 C.ar        1 M3S      -0.0620
     10 C3         35.9504   32.4554   -1.7846 C.ar        1 M3S       0.0373
     11 C8         35.3316   31.6822   -0.7865 C.2         1 M3S       0.0573
     12 O10        34.0642   31.9924   -0.4407 O.co2       1 M3S      -0.5642
     13 O9         36.1006   31.1376    0.1801 O.co2       1 M3S      -0.5642
     14 C13        33.7879   29.1181   -4.0027 C.3         1 M3S       0.0413
     15 H1         37.2977   33.0481   -6.1517 H           1 M3S       0.0370
     16 H2         35.7260   32.2756   -5.9206 H           1 M3S       0.0370
     17 H3         37.2223   31.3802   -5.5745 H           1 M3S       0.0370
     18 H4         37.8067   34.5769   -4.4051 H           1 M3S       0.0549
     19 H5         37.7257   35.3084   -2.1167 H           1 M3S       0.0520
     20 H6         36.5822   33.9928   -0.4467 H           1 M3S       0.0566
     21 H7         32.7061   29.0065   -4.0839 H           1 M3S       0.0485
     22 H8         34.1614   28.4056   -3.2674 H           1 M3S       0.0485
     23 H9         34.2341   28.8947   -4.9729 H           1 M3S       0.0485
@<TRIPOS>BOND
     1     1     2   2
     2     2     3   1
     3     2    14   1
     4     3     4   1
     5     4     5  ar
     6     4    10  ar
     7     5     6   1
     8     5     7  ar
     9     7     8  ar
    10     8     9  ar
    11     9    10  ar
    12    10    11   1
    13    11    12  ar
    14    11    13  ar
    15     6    15   1
    16     6    16   1
    17     6    17   1
    18     7    18   1
    19     8    19   1
    20     9    20   1
    21    14    21   1
    22    14    22   1
    23    14    23   1
@<TRIPOS>SUBSTRUCTURE
     1  M3S      2

