@<TRIPOS>MOLECULE
3fcq_ligand_018
    23    23
SMALL
GAST_HUCK
****
This file was generated by PARSER (from files_GN.cpp)

@<TRIPOS>ATOM
      1 O12        38.6528   29.1556    0.6278 O.2         1 M3S      -0.3640
      2 C11        37.6618   29.7564    1.3273 C.2         1 M3S       0.2533
      3 O1         37.0043   30.8416    0.8420 O.3         1 M3S      -0.2144
      4 C2         37.2267   31.6121   -0.2661 C.ar        1 M3S       0.1394
      5 C7         38.4402   32.3372   -0.4397 C.ar        1 M3S      -0.0078
      6 C1         39.5518   32.2550    0.5428 C.3         1 M3S      -0.0317
      7 C6         38.5557   33.2220   -1.5364 C.ar        1 M3S      -0.0652
      8 C5         37.4833   33.4174   -2.4194 C.ar        1 M3S      -0.0752
      9 C4         36.2763   32.7326   -2.2173 C.ar        1 M3S      -0.0620
     10 C3         36.1304   31.8217   -1.1471 C.ar        1 M3S       0.0373
     11 C8         34.8955   31.1410   -0.9927 C.2         1 M3S       0.0573
     12 O10        34.7435   29.8423   -1.3397 O.co2       1 M3S      -0.5642
     13 O9         33.8575   31.7235   -0.3522 O.co2       1 M3S      -0.5642
     14 C13        37.1959   29.1779    2.5926 C.3         1 M3S       0.0413
     15 H1         40.3302   32.9970    0.3531 H           1 M3S       0.0370
     16 H2         40.0191   31.2726    0.4987 H           1 M3S       0.0370
     17 H3         39.1708   32.4269    1.5513 H           1 M3S       0.0370
     18 H4         39.4164   33.7531   -1.6906 H           1 M3S       0.0549
     19 H5         37.5769   34.0689   -3.2022 H           1 M3S       0.0520
     20 H6         35.5094   32.8970   -2.8732 H           1 M3S       0.0566
     21 H7         37.7782   28.2917    2.8531 H           1 M3S       0.0485
     22 H8         36.1453   28.8982    2.5013 H           1 M3S       0.0485
     23 H9         37.2996   29.9163    3.3897 H           1 M3S       0.0485
@<TRIPOS>BOND
     1     1     2   2
     2     2     3   1
     3     2    14   1
     4     3     4   1
     5     4     5  ar
     6     4    10  ar
     7     5     6   1
     8     5     7  ar
     9     7     8  ar
    10     8     9  ar
    11     9    10  ar
    12    10    11   1
    13    11    12  ar
    14    11    13  ar
    15     6    15   1
    16     6    16   1
    17     6    17   1
    18     7    18   1
    19     8    19   1
    20     9    20   1
    21    14    21   1
    22    14    22   1
    23    14    23   1
@<TRIPOS>SUBSTRUCTURE
     1  M3S      2

