@<TRIPOS>MOLECULE
3fcq_ligand_005
    23    23
SMALL
GAST_HUCK
****
This file was generated by PARSER (from files_GN.cpp)

@<TRIPOS>ATOM
      1 O12        38.6070   30.4404   -0.3402 O.2         1 M3S      -0.3640
      2 C11        37.6806   30.8658    0.5495 C.2         1 M3S       0.2533
      3 O1         36.4195   30.3568    0.5603 O.3         1 M3S      -0.2144
      4 C2         35.9443   29.3403   -0.2302 C.ar        1 M3S       0.1394
      5 C7         36.4332   28.0161   -0.0669 C.ar        1 M3S      -0.0078
      6 C1         37.3768   27.6692    1.0255 C.3         1 M3S      -0.0317
      7 C6         35.9832   27.0047   -0.9470 C.ar        1 M3S      -0.0652
      8 C5         35.0673   27.2977   -1.9692 C.ar        1 M3S      -0.0752
      9 C4         34.5625   28.5999   -2.1044 C.ar        1 M3S      -0.0620
     10 C3         34.9719   29.6309   -1.2269 C.ar        1 M3S       0.0373
     11 C8         34.4159   30.9237   -1.3690 C.2         1 M3S       0.0573
     12 O10        33.6782   31.4785   -0.3763 O.co2       1 M3S      -0.5642
     13 O9         34.4165   31.5592   -2.5661 O.co2       1 M3S      -0.5642
     14 C13        38.0414   31.9112    1.5222 C.3         1 M3S       0.0413
     15 H1         37.5567   26.5933    1.0981 H           1 M3S       0.0370
     16 H2         36.9723   28.0073    1.9825 H           1 M3S       0.0370
     17 H3         38.3389   28.1532    0.8545 H           1 M3S       0.0370
     18 H4         36.3220   26.0436   -0.8525 H           1 M3S       0.0549
     19 H5         34.7592   26.5606   -2.6034 H           1 M3S       0.0520
     20 H6         33.8722   28.7816   -2.8406 H           1 M3S       0.0566
     21 H7         39.0782   32.2251    1.3832 H           1 M3S       0.0485
     22 H8         37.9241   31.5281    2.5375 H           1 M3S       0.0485
     23 H9         37.3886   32.7750    1.3924 H           1 M3S       0.0485
@<TRIPOS>BOND
     1     1     2   2
     2     2     3   1
     3     2    14   1
     4     3     4   1
     5     4     5  ar
     6     4    10  ar
     7     5     6   1
     8     5     7  ar
     9     7     8  ar
    10     8     9  ar
    11     9    10  ar
    12    10    11   1
    13    11    12  ar
    14    11    13  ar
    15     6    15   1
    16     6    16   1
    17     6    17   1
    18     7    18   1
    19     8    19   1
    20     9    20   1
    21    14    21   1
    22    14    22   1
    23    14    23   1
@<TRIPOS>SUBSTRUCTURE
     1  M3S      2

