@<TRIPOS>MOLECULE
3fcq_ligand_006
    23    23
SMALL
GAST_HUCK
****
This file was generated by PARSER (from files_GN.cpp)

@<TRIPOS>ATOM
      1 O12        37.9172   42.4307   -3.9410 O.2         1 M3S      -0.3640
      2 C11        36.6302   42.0177   -3.9340 C.2         1 M3S       0.2533
      3 O1         35.9494   41.8636   -2.7701 O.3         1 M3S      -0.2144
      4 C2         36.4401   42.0990   -1.5126 C.ar        1 M3S       0.1394
      5 C7         36.8479   43.4114   -1.1556 C.ar        1 M3S      -0.0078
      6 C1         36.7418   44.5422   -2.1041 C.3         1 M3S      -0.0317
      7 C6         37.4040   43.6266    0.1313 C.ar        1 M3S      -0.0652
      8 C5         37.5385   42.5627    1.0359 C.ar        1 M3S      -0.0752
      9 C4         37.1344   41.2694    0.6666 C.ar        1 M3S      -0.0620
     10 C3         36.5821   41.0173   -0.6001 C.ar        1 M3S       0.0373
     11 C8         36.1894   39.7026   -0.9287 C.2         1 M3S       0.0573
     12 O10        36.9365   38.6220   -0.5394 O.co2       1 M3S      -0.5642
     13 O9         34.9673   39.4421   -1.4763 O.co2       1 M3S      -0.5642
     14 C13        35.9408   41.7593   -5.1921 C.3         1 M3S       0.0413
     15 H1         37.0846   45.4854   -1.6858 H           1 M3S       0.0370
     16 H2         35.6965   44.6664   -2.4131 H           1 M3S       0.0370
     17 H3         37.3456   44.3348   -3.0003 H           1 M3S       0.0370
     18 H4         37.6973   44.5616    0.4266 H           1 M3S       0.0549
     19 H5         37.9096   42.7320    1.9784 H           1 M3S       0.0520
     20 H6         37.2365   40.5245    1.3488 H           1 M3S       0.0566
     21 H7         36.5594   42.0233   -6.0484 H           1 M3S       0.0485
     22 H8         35.0192   42.3506   -5.2347 H           1 M3S       0.0485
     23 H9         35.6776   40.7016   -5.2591 H           1 M3S       0.0485
@<TRIPOS>BOND
     1     1     2   2
     2     2     3   1
     3     2    14   1
     4     3     4   1
     5     4     5  ar
     6     4    10  ar
     7     5     6   1
     8     5     7  ar
     9     7     8  ar
    10     8     9  ar
    11     9    10  ar
    12    10    11   1
    13    11    12  ar
    14    11    13  ar
    15     6    15   1
    16     6    16   1
    17     6    17   1
    18     7    18   1
    19     8    19   1
    20     9    20   1
    21    14    21   1
    22    14    22   1
    23    14    23   1
@<TRIPOS>SUBSTRUCTURE
     1  M3S      2

