@<TRIPOS>MOLECULE
3fcq_ligand_015
    23    23
SMALL
GAST_HUCK
****
This file was generated by PARSER (from files_GN.cpp)

@<TRIPOS>ATOM
      1 O12        39.4960   37.2404   -4.4727 O.2         1 M3S      -0.3640
      2 C11        40.1465   38.3148   -3.9620 C.2         1 M3S       0.2533
      3 O1         39.6019   39.0886   -2.9851 O.3         1 M3S      -0.2144
      4 C2         38.4470   38.8455   -2.2752 C.ar        1 M3S       0.1394
      5 C7         38.2664   37.6354   -1.5378 C.ar        1 M3S      -0.0078
      6 C1         39.3222   36.5957   -1.4511 C.3         1 M3S      -0.0317
      7 C6         37.0555   37.4493   -0.8264 C.ar        1 M3S      -0.0652
      8 C5         36.0569   38.4387   -0.8265 C.ar        1 M3S      -0.0752
      9 C4         36.2489   39.6278   -1.5423 C.ar        1 M3S      -0.0620
     10 C3         37.4470   39.8474   -2.2546 C.ar        1 M3S       0.0373
     11 C8         37.6253   41.0476   -2.9572 C.2         1 M3S       0.0573
     12 O10        38.3108   42.0548   -2.3714 O.co2       1 M3S      -0.5642
     13 O9         36.8788   41.3115   -4.0506 O.co2       1 M3S      -0.5642
     14 C13        41.4608   38.6838   -4.5055 C.3         1 M3S       0.0413
     15 H1         39.0581   35.7930   -0.7550 H           1 M3S       0.0370
     16 H2         40.2579   37.0494   -1.1113 H           1 M3S       0.0370
     17 H3         39.4864   36.1293   -2.4225 H           1 M3S       0.0370
     18 H4         36.8986   36.5952   -0.2864 H           1 M3S       0.0549
     19 H5         35.1955   38.2951   -0.2948 H           1 M3S       0.0520
     20 H6         35.5183   40.3456   -1.5164 H           1 M3S       0.0566
     21 H7         41.7762   37.9726   -5.2725 H           1 M3S       0.0485
     22 H8         42.1963   38.6837   -3.6995 H           1 M3S       0.0485
     23 H9         41.4085   39.6791   -4.9430 H           1 M3S       0.0485
@<TRIPOS>BOND
     1     1     2   2
     2     2     3   1
     3     2    14   1
     4     3     4   1
     5     4     5  ar
     6     4    10  ar
     7     5     6   1
     8     5     7  ar
     9     7     8  ar
    10     8     9  ar
    11     9    10  ar
    12    10    11   1
    13    11    12  ar
    14    11    13  ar
    15     6    15   1
    16     6    16   1
    17     6    17   1
    18     7    18   1
    19     8    19   1
    20     9    20   1
    21    14    21   1
    22    14    22   1
    23    14    23   1
@<TRIPOS>SUBSTRUCTURE
     1  M3S      2

