@<TRIPOS>MOLECULE
3fcq_ligand_044
    23    23
SMALL
GAST_HUCK
****
This file was generated by PARSER (from files_GN.cpp)

@<TRIPOS>ATOM
      1 O12        33.5567   31.5064   -0.4337 O.2         1 M3S      -0.3640
      2 C11        34.1845   30.8959   -1.4667 C.2         1 M3S       0.2533
      3 O1         35.5154   30.5994   -1.4172 O.3         1 M3S      -0.2144
      4 C2         36.3792   30.8143   -0.3713 C.ar        1 M3S       0.1394
      5 C7         36.8945   29.6857    0.3215 C.ar        1 M3S      -0.0078
      6 C1         36.4725   28.3074   -0.0428 C.3         1 M3S      -0.0317
      7 C6         37.8339   29.8860    1.3587 C.ar        1 M3S      -0.0652
      8 C5         38.2686   31.1752    1.6946 C.ar        1 M3S      -0.0752
      9 C4         37.7969   32.2803    0.9762 C.ar        1 M3S      -0.0620
     10 C3         36.8639   32.1190   -0.0716 C.ar        1 M3S       0.0373
     11 C8         36.4653   33.2697   -0.7957 C.2         1 M3S       0.0573
     12 O10        35.1480   33.5652   -0.9346 O.co2       1 M3S      -0.5642
     13 O9         37.3571   34.2480   -1.1146 O.co2       1 M3S      -0.5642
     14 C13        33.4461   30.5672   -2.6925 C.3         1 M3S       0.0413
     15 H1         36.9678   27.5548    0.5717 H           1 M3S       0.0370
     16 H2         36.7291   28.1142   -1.0865 H           1 M3S       0.0370
     17 H3         35.3963   28.2046    0.0898 H           1 M3S       0.0370
     18 H4         38.2198   29.0894    1.8690 H           1 M3S       0.0549
     19 H5         38.9416   31.3045    2.4545 H           1 M3S       0.0520
     20 H6         38.1442   33.2128    1.2404 H           1 M3S       0.0566
     21 H7         32.4219   30.9534   -2.6491 H           1 M3S       0.0485
     22 H8         33.4081   29.4827   -2.8319 H           1 M3S       0.0485
     23 H9         33.9501   31.0157   -3.5520 H           1 M3S       0.0485
@<TRIPOS>BOND
     1     1     2   2
     2     2     3   1
     3     2    14   1
     4     3     4   1
     5     4     5  ar
     6     4    10  ar
     7     5     6   1
     8     5     7  ar
     9     7     8  ar
    10     8     9  ar
    11     9    10  ar
    12    10    11   1
    13    11    12  ar
    14    11    13  ar
    15     6    15   1
    16     6    16   1
    17     6    17   1
    18     7    18   1
    19     8    19   1
    20     9    20   1
    21    14    21   1
    22    14    22   1
    23    14    23   1
@<TRIPOS>SUBSTRUCTURE
     1  M3S      2

