@<TRIPOS>MOLECULE
3fcq_ligand_000
    23    23
SMALL
GAST_HUCK
****
This file was generated by PARSER (from files_GN.cpp)

@<TRIPOS>ATOM
      1 O12        33.7764   42.4235  -11.9642 O.2         1 M3S      -0.3640
      2 C11        32.5916   42.1941  -11.3489 C.2         1 M3S       0.2533
      3 O1         32.4823   41.2989  -10.3295 O.3         1 M3S      -0.2144
      4 C2         33.4870   40.5216   -9.8251 C.ar        1 M3S       0.1394
      5 C7         33.8761   39.3400  -10.5121 C.ar        1 M3S      -0.0078
      6 C1         33.1886   38.8989  -11.7520 C.3         1 M3S      -0.0317
      7 C6         34.9324   38.5605   -9.9863 C.ar        1 M3S      -0.0652
      8 C5         35.5882   38.9441   -8.8050 C.ar        1 M3S      -0.0752
      9 C4         35.1982   40.1121   -8.1319 C.ar        1 M3S      -0.0620
     10 C3         34.1420   40.9138   -8.6225 C.ar        1 M3S       0.0373
     11 C8         33.7898   42.1027   -7.9277 C.2         1 M3S       0.0573
     12 O10        34.7403   42.8571   -7.3260 O.co2       1 M3S      -0.5642
     13 O9         32.5075   42.5356   -7.8441 O.co2       1 M3S      -0.5642
     14 C13        31.4069   42.9619  -11.7417 C.3         1 M3S       0.0413
     15 H1         33.5558   37.9346  -12.1138 H           1 M3S       0.0370
     16 H2         33.3366   39.6297  -12.5459 H           1 M3S       0.0370
     17 H3         32.1205   38.7936  -11.5584 H           1 M3S       0.0370
     18 H4         35.2391   37.7051  -10.4581 H           1 M3S       0.0549
     19 H5         36.3475   38.3660   -8.4354 H           1 M3S       0.0520
     20 H6         35.6936   40.3628   -7.2737 H           1 M3S       0.0566
     21 H7         31.6431   43.6590  -12.5504 H           1 M3S       0.0485
     22 H8         31.0400   43.5254  -10.8855 H           1 M3S       0.0485
     23 H9         30.6273   42.2792  -12.0871 H           1 M3S       0.0485
@<TRIPOS>BOND
     1     1     2   2
     2     2     3   1
     3     2    14   1
     4     3     4   1
     5     4     5  ar
     6     4    10  ar
     7     5     6   1
     8     5     7  ar
     9     7     8  ar
    10     8     9  ar
    11     9    10  ar
    12    10    11   1
    13    11    12  ar
    14    11    13  ar
    15     6    15   1
    16     6    16   1
    17     6    17   1
    18     7    18   1
    19     8    19   1
    20     9    20   1
    21    14    21   1
    22    14    22   1
    23    14    23   1
@<TRIPOS>SUBSTRUCTURE
     1  M3S      2

