@<TRIPOS>MOLECULE
3fcq_ligand_004
    23    23
SMALL
GAST_HUCK
****
This file was generated by PARSER (from files_GN.cpp)

@<TRIPOS>ATOM
      1 O12        39.4503   35.8280   -4.6890 O.2         1 M3S      -0.3640
      2 C11        39.7370   36.8597   -5.5094 C.2         1 M3S       0.2533
      3 O1         38.8955   37.9127   -5.6631 O.3         1 M3S      -0.2144
      4 C2         37.6223   38.0783   -5.1678 C.ar        1 M3S       0.1394
      5 C7         36.5392   37.2710   -5.6118 C.ar        1 M3S      -0.0078
      6 C1         36.7245   36.2105   -6.6421 C.3         1 M3S      -0.0317
      7 C6         35.2358   37.5282   -5.1176 C.ar        1 M3S      -0.0652
      8 C5         34.9978   38.6059   -4.2534 C.ar        1 M3S      -0.0752
      9 C4         36.0509   39.4465   -3.8745 C.ar        1 M3S      -0.0620
     10 C3         37.3661   39.1915   -4.3232 C.ar        1 M3S       0.0373
     11 C8         38.4118   40.0327   -3.8942 C.2         1 M3S       0.0573
     12 O10        38.2201   41.3471   -3.6024 O.co2       1 M3S      -0.5642
     13 O9         39.6090   39.4991   -3.5261 O.co2       1 M3S      -0.5642
     14 C13        41.0297   36.8822   -6.2109 C.3         1 M3S       0.0413
     15 H1         35.7738   35.8051   -6.9978 H           1 M3S       0.0370
     16 H2         37.3055   35.3854   -6.2338 H           1 M3S       0.0370
     17 H3         37.2444   36.6281   -7.5034 H           1 M3S       0.0370
     18 H4         34.4483   36.9443   -5.4021 H           1 M3S       0.0549
     19 H5         34.0525   38.7835   -3.9221 H           1 M3S       0.0520
     20 H6         35.8506   40.2342   -3.2492 H           1 M3S       0.0566
     21 H7         41.5817   35.9614   -6.0360 H           1 M3S       0.0485
     22 H8         41.6195   37.7225   -5.8484 H           1 M3S       0.0485
     23 H9         40.8704   36.9917   -7.2879 H           1 M3S       0.0485
@<TRIPOS>BOND
     1     1     2   2
     2     2     3   1
     3     2    14   1
     4     3     4   1
     5     4     5  ar
     6     4    10  ar
     7     5     6   1
     8     5     7  ar
     9     7     8  ar
    10     8     9  ar
    11     9    10  ar
    12    10    11   1
    13    11    12  ar
    14    11    13  ar
    15     6    15   1
    16     6    16   1
    17     6    17   1
    18     7    18   1
    19     8    19   1
    20     9    20   1
    21    14    21   1
    22    14    22   1
    23    14    23   1
@<TRIPOS>SUBSTRUCTURE
     1  M3S      2

