@<TRIPOS>MOLECULE
3fcq_ligand_003
    23    23
SMALL
GAST_HUCK
****
This file was generated by PARSER (from files_GN.cpp)

@<TRIPOS>ATOM
      1 O12        43.1152   39.6850   -4.5892 O.2         1 M3S      -0.3640
      2 C11        43.7842   38.5649   -4.9487 C.2         1 M3S       0.2533
      3 O1         43.1806   37.5024   -5.5513 O.3         1 M3S      -0.2144
      4 C2         41.8960   37.1272   -5.9001 C.ar        1 M3S       0.1394
      5 C7         41.7815   36.1253   -6.8894 C.ar        1 M3S      -0.0078
      6 C1         42.9839   35.4853   -7.4995 C.3         1 M3S      -0.0317
      7 C6         40.5007   35.7295   -7.3438 C.ar        1 M3S      -0.0652
      8 C5         39.3462   36.3402   -6.8321 C.ar        1 M3S      -0.0752
      9 C4         39.4441   37.3133   -5.8406 C.ar        1 M3S      -0.0620
     10 C3         40.7196   37.7090   -5.3321 C.ar        1 M3S       0.0373
     11 C8         40.7477   38.6127   -4.2612 C.2         1 M3S       0.0573
     12 O10        41.5417   38.3879   -3.1956 O.co2       1 M3S      -0.5642
     13 O9         39.8184   39.5993   -4.1506 O.co2       1 M3S      -0.5642
     14 C13        45.2384   38.5254   -4.7493 C.3         1 M3S       0.0413
     15 H1         42.7246   34.7179   -8.2264 H           1 M3S       0.0370
     16 H2         43.5868   35.0219   -6.7186 H           1 M3S       0.0370
     17 H3         43.5815   36.2444   -8.0088 H           1 M3S       0.0370
     18 H4         40.3961   35.0137   -8.0650 H           1 M3S       0.0549
     19 H5         38.4232   36.0549   -7.1810 H           1 M3S       0.0520
     20 H6         38.5895   37.7224   -5.4653 H           1 M3S       0.0566
     21 H7         45.5973   39.4444   -4.2743 H           1 M3S       0.0485
     22 H8         45.7366   38.4207   -5.7137 H           1 M3S       0.0485
     23 H9         45.5016   37.6833   -4.1217 H           1 M3S       0.0485
@<TRIPOS>BOND
     1     1     2   2
     2     2     3   1
     3     2    14   1
     4     3     4   1
     5     4     5  ar
     6     4    10  ar
     7     5     6   1
     8     5     7  ar
     9     7     8  ar
    10     8     9  ar
    11     9    10  ar
    12    10    11   1
    13    11    12  ar
    14    11    13  ar
    15     6    15   1
    16     6    16   1
    17     6    17   1
    18     7    18   1
    19     8    19   1
    20     9    20   1
    21    14    21   1
    22    14    22   1
    23    14    23   1
@<TRIPOS>SUBSTRUCTURE
     1  M3S      2

