@<TRIPOS>MOLECULE
3fcq_ligand_008
    23    23
SMALL
GAST_HUCK
****
This file was generated by PARSER (from files_GN.cpp)

@<TRIPOS>ATOM
      1 O12        41.6680   37.0192   -2.2028 O.2         1 M3S      -0.3640
      2 C11        42.1389   38.1862   -2.6997 C.2         1 M3S       0.2533
      3 O1         41.7877   38.6305   -3.9361 O.3         1 M3S      -0.2144
      4 C2         40.9652   37.9898   -4.8202 C.ar        1 M3S       0.1394
      5 C7         41.5789   37.2668   -5.8771 C.ar        1 M3S      -0.0078
      6 C1         43.0578   37.1979   -5.9958 C.3         1 M3S      -0.0317
      7 C6         40.7648   36.5687   -6.7986 C.ar        1 M3S      -0.0652
      8 C5         39.3679   36.5987   -6.6801 C.ar        1 M3S      -0.0752
      9 C4         38.7662   37.3213   -5.6379 C.ar        1 M3S      -0.0620
     10 C3         39.5466   38.0354   -4.6968 C.ar        1 M3S       0.0373
     11 C8         38.8813   38.7523   -3.6645 C.2         1 M3S       0.0573
     12 O10        37.6210   38.4320   -3.2876 O.co2       1 M3S      -0.5642
     13 O9         39.4576   39.7737   -2.9903 O.co2       1 M3S      -0.5642
     14 C13        43.0966   38.9833   -1.9219 C.3         1 M3S       0.0413
     15 H1         43.3824   36.6456   -6.8786 H           1 M3S       0.0370
     16 H2         43.4739   36.7047   -5.1158 H           1 M3S       0.0370
     17 H3         43.4760   38.2041   -6.0594 H           1 M3S       0.0370
     18 H4         41.1830   36.0283   -7.5607 H           1 M3S       0.0549
     19 H5         38.7876   36.0940   -7.3532 H           1 M3S       0.0520
     20 H6         37.7453   37.3283   -5.5894 H           1 M3S       0.0566
     21 H7         43.3201   38.5016   -0.9689 H           1 M3S       0.0485
     22 H8         42.6794   39.9700   -1.7322 H           1 M3S       0.0485
     23 H9         44.0239   39.0915   -2.4874 H           1 M3S       0.0485
@<TRIPOS>BOND
     1     1     2   2
     2     2     3   1
     3     2    14   1
     4     3     4   1
     5     4     5  ar
     6     4    10  ar
     7     5     6   1
     8     5     7  ar
     9     7     8  ar
    10     8     9  ar
    11     9    10  ar
    12    10    11   1
    13    11    12  ar
    14    11    13  ar
    15     6    15   1
    16     6    16   1
    17     6    17   1
    18     7    18   1
    19     8    19   1
    20     9    20   1
    21    14    21   1
    22    14    22   1
    23    14    23   1
@<TRIPOS>SUBSTRUCTURE
     1  M3S      2

