@<TRIPOS>MOLECULE
3fcq_ligand_032
    23    23
SMALL
GAST_HUCK
****
This file was generated by PARSER (from files_GN.cpp)

@<TRIPOS>ATOM
      1 O12        31.8795   42.0712   -8.3704 O.2         1 M3S      -0.3640
      2 C11        32.6448   41.6688   -9.4104 C.2         1 M3S       0.2533
      3 O1         32.1142   41.0013  -10.4704 O.3         1 M3S      -0.2144
      4 C2         30.8176   40.5920  -10.6404 C.ar        1 M3S       0.1394
      5 C7         30.2931   39.5464   -9.8294 C.ar        1 M3S      -0.0078
      6 C1         31.1453   38.8103   -8.8583 C.3         1 M3S      -0.0317
      7 C6         28.9414   39.1647   -9.9928 C.ar        1 M3S      -0.0652
      8 C5         28.1356   39.7815  -10.9581 C.ar        1 M3S      -0.0752
      9 C4         28.6731   40.7788  -11.7845 C.ar        1 M3S      -0.0620
     10 C3         30.0198   41.1966  -11.6534 C.ar        1 M3S       0.0373
     11 C8         30.5152   42.2115  -12.5225 C.2         1 M3S       0.0573
     12 O10        29.6867   43.0151  -13.2363 O.co2       1 M3S      -0.5642
     13 O9         31.8362   42.4009  -12.7540 O.co2       1 M3S      -0.5642
     14 C13        34.0720   42.0073   -9.4403 C.3         1 M3S       0.0413
     15 H1         30.6031   38.0008   -8.3580 H           1 M3S       0.0370
     16 H2         31.5139   39.4872   -8.0851 H           1 M3S       0.0370
     17 H3         31.9976   38.3699   -9.3779 H           1 M3S       0.0370
     18 H4         28.5321   38.4263   -9.4108 H           1 M3S       0.0549
     19 H5         27.1604   39.4982  -11.0647 H           1 M3S       0.0520
     20 H6         28.0564   41.1950  -12.4896 H           1 M3S       0.0566
     21 H7         34.3644   42.5706   -8.5523 H           1 M3S       0.0485
     22 H8         34.2839   42.6112  -10.3249 H           1 M3S       0.0485
     23 H9         34.6606   41.0891   -9.4850 H           1 M3S       0.0485
@<TRIPOS>BOND
     1     1     2   2
     2     2     3   1
     3     2    14   1
     4     3     4   1
     5     4     5  ar
     6     4    10  ar
     7     5     6   1
     8     5     7  ar
     9     7     8  ar
    10     8     9  ar
    11     9    10  ar
    12    10    11   1
    13    11    12  ar
    14    11    13  ar
    15     6    15   1
    16     6    16   1
    17     6    17   1
    18     7    18   1
    19     8    19   1
    20     9    20   1
    21    14    21   1
    22    14    22   1
    23    14    23   1
@<TRIPOS>SUBSTRUCTURE
     1  M3S      2

