@<TRIPOS>MOLECULE
3fcq_ligand_031
    23    23
SMALL
GAST_HUCK
****
This file was generated by PARSER (from files_GN.cpp)

@<TRIPOS>ATOM
      1 O12        33.3614   42.4651  -12.7714 O.2         1 M3S      -0.3640
      2 C11        33.4672   43.4090  -11.8059 C.2         1 M3S       0.2533
      3 O1         33.0632   43.1618  -10.5293 O.3         1 M3S      -0.2144
      4 C2         32.4326   42.0531  -10.0169 C.ar        1 M3S       0.1394
      5 C7         32.9395   41.5308   -8.7961 C.ar        1 M3S      -0.0078
      6 C1         34.0377   42.2173   -8.0684 C.3         1 M3S      -0.0317
      7 C6         32.3961   40.3349   -8.2765 C.ar        1 M3S      -0.0652
      8 C5         31.3528   39.6756   -8.9424 C.ar        1 M3S      -0.0752
      9 C4         30.8218   40.2176  -10.1229 C.ar        1 M3S      -0.0620
     10 C3         31.3311   41.4215  -10.6662 C.ar        1 M3S       0.0373
     11 C8         30.6797   41.9932  -11.7904 C.2         1 M3S       0.0573
     12 O10        30.5368   43.3337  -11.9054 O.co2       1 M3S      -0.5642
     13 O9         29.9883   41.2386  -12.6775 O.co2       1 M3S      -0.5642
     14 C13        34.0608   44.7129  -12.1287 C.3         1 M3S       0.0413
     15 H1         34.3453   41.6787   -7.1683 H           1 M3S       0.0370
     16 H2         33.6998   43.2096   -7.7663 H           1 M3S       0.0370
     17 H3         34.9094   42.3183   -8.7177 H           1 M3S       0.0370
     18 H4         32.7517   39.9353   -7.4039 H           1 M3S       0.0549
     19 H5         30.9597   38.8156   -8.5517 H           1 M3S       0.0520
     20 H6         30.0321   39.7343  -10.5598 H           1 M3S       0.0566
     21 H7         34.2788   44.7813  -13.1966 H           1 M3S       0.0485
     22 H8         34.9901   44.8390  -11.5733 H           1 M3S       0.0485
     23 H9         33.3669   45.5101  -11.8555 H           1 M3S       0.0485
@<TRIPOS>BOND
     1     1     2   2
     2     2     3   1
     3     2    14   1
     4     3     4   1
     5     4     5  ar
     6     4    10  ar
     7     5     6   1
     8     5     7  ar
     9     7     8  ar
    10     8     9  ar
    11     9    10  ar
    12    10    11   1
    13    11    12  ar
    14    11    13  ar
    15     6    15   1
    16     6    16   1
    17     6    17   1
    18     7    18   1
    19     8    19   1
    20     9    20   1
    21    14    21   1
    22    14    22   1
    23    14    23   1
@<TRIPOS>SUBSTRUCTURE
     1  M3S      2

