@<TRIPOS>MOLECULE
3fcq_ligand_030
    23    23
SMALL
GAST_HUCK
****
This file was generated by PARSER (from files_GN.cpp)

@<TRIPOS>ATOM
      1 O12        33.2590   38.3029   -9.5838 O.2         1 M3S      -0.3640
      2 C11        32.8605   38.3021   -8.2893 C.2         1 M3S       0.2533
      3 O1         31.5393   38.3821   -7.9703 O.3         1 M3S      -0.2144
      4 C2         30.4522   38.6004   -8.7788 C.ar        1 M3S       0.1394
      5 C7         29.3809   37.6684   -8.7388 C.ar        1 M3S      -0.0078
      6 C1         29.4381   36.4830   -7.8577 C.3         1 M3S      -0.0317
      7 C6         28.2570   37.8710   -9.5800 C.ar        1 M3S      -0.0652
      8 C5         28.1871   38.9894  -10.4259 C.ar        1 M3S      -0.0752
      9 C4         29.2379   39.9189  -10.4416 C.ar        1 M3S      -0.0620
     10 C3         30.3648   39.7443   -9.6093 C.ar        1 M3S       0.0373
     11 C8         31.3558   40.7466   -9.5747 C.2         1 M3S       0.0573
     12 O10        31.2400   41.7236   -8.6403 O.co2       1 M3S      -0.5642
     13 O9         32.0583   41.0256  -10.7030 O.co2       1 M3S      -0.5642
     14 C13        33.8484   38.1412   -7.2183 C.3         1 M3S       0.0413
     15 H1         28.5591   35.8362   -7.9617 H           1 M3S       0.0370
     16 H2         29.5021   36.8008   -6.8154 H           1 M3S       0.0370
     17 H3         30.3158   35.8822   -8.0999 H           1 M3S       0.0370
     18 H4         27.4771   37.2062   -9.5819 H           1 M3S       0.0549
     19 H5         27.3740   39.1265  -11.0293 H           1 M3S       0.0520
     20 H6         29.1522   40.7453  -11.0428 H           1 M3S       0.0566
     21 H7         34.8615   38.1052   -7.6230 H           1 M3S       0.0485
     22 H8         33.6563   37.2193   -6.6735 H           1 M3S       0.0485
     23 H9         33.7782   38.9788   -6.5273 H           1 M3S       0.0485
@<TRIPOS>BOND
     1     1     2   2
     2     2     3   1
     3     2    14   1
     4     3     4   1
     5     4     5  ar
     6     4    10  ar
     7     5     6   1
     8     5     7  ar
     9     7     8  ar
    10     8     9  ar
    11     9    10  ar
    12    10    11   1
    13    11    12  ar
    14    11    13  ar
    15     6    15   1
    16     6    16   1
    17     6    17   1
    18     7    18   1
    19     8    19   1
    20     9    20   1
    21    14    21   1
    22    14    22   1
    23    14    23   1
@<TRIPOS>SUBSTRUCTURE
     1  M3S      2

