@<TRIPOS>MOLECULE
3fcq_ligand_024
    23    23
SMALL
GAST_HUCK
****
This file was generated by PARSER (from files_GN.cpp)

@<TRIPOS>ATOM
      1 O12        30.2177   32.1209   -5.8838 O.2         1 M3S      -0.3640
      2 C11        30.9192   32.0134   -7.0379 C.2         1 M3S       0.2533
      3 O1         31.5230   33.0933   -7.6010 O.3         1 M3S      -0.2144
      4 C2         31.4986   34.3706   -7.1120 C.ar        1 M3S       0.1394
      5 C7         32.5180   34.7803   -6.2132 C.ar        1 M3S      -0.0078
      6 C1         33.6076   33.8493   -5.8274 C.3         1 M3S      -0.0317
      7 C6         32.4928   36.0969   -5.7021 C.ar        1 M3S      -0.0652
      8 C5         31.4713   36.9859   -6.0694 C.ar        1 M3S      -0.0752
      9 C4         30.4625   36.5722   -6.9533 C.ar        1 M3S      -0.0620
     10 C3         30.4644   35.2663   -7.4979 C.ar        1 M3S       0.0373
     11 C8         29.4573   34.8958   -8.4243 C.2         1 M3S       0.0573
     12 O10        29.7202   34.0377   -9.4358 O.co2       1 M3S      -0.5642
     13 O9         28.2552   35.5160   -8.4499 O.co2       1 M3S      -0.5642
     14 C13        31.0671   30.7038   -7.6834 C.3         1 M3S       0.0413
     15 H1         34.3298   34.3118   -5.1531 H           1 M3S       0.0370
     16 H2         34.1392   33.5256   -6.7231 H           1 M3S       0.0370
     17 H3         33.1909   32.9745   -5.3254 H           1 M3S       0.0370
     18 H4         33.2270   36.4249   -5.0714 H           1 M3S       0.0549
     19 H5         31.4701   37.9406   -5.6998 H           1 M3S       0.0520
     20 H6         29.7447   37.2503   -7.2218 H           1 M3S       0.0566
     21 H7         30.5346   29.9335   -7.1214 H           1 M3S       0.0485
     22 H8         32.1259   30.4425   -7.7283 H           1 M3S       0.0485
     23 H9         30.6632   30.7465   -8.6969 H           1 M3S       0.0485
@<TRIPOS>BOND
     1     1     2   2
     2     2     3   1
     3     2    14   1
     4     3     4   1
     5     4     5  ar
     6     4    10  ar
     7     5     6   1
     8     5     7  ar
     9     7     8  ar
    10     8     9  ar
    11     9    10  ar
    12    10    11   1
    13    11    12  ar
    14    11    13  ar
    15     6    15   1
    16     6    16   1
    17     6    17   1
    18     7    18   1
    19     8    19   1
    20     9    20   1
    21    14    21   1
    22    14    22   1
    23    14    23   1
@<TRIPOS>SUBSTRUCTURE
     1  M3S      2

