@<TRIPOS>MOLECULE
3fcq_ligand_047
    23    23
SMALL
GAST_HUCK
****
This file was generated by PARSER (from files_GN.cpp)

@<TRIPOS>ATOM
      1 O12        36.9064   41.9524    3.0766 O.2         1 M3S      -0.3640
      2 C11        38.0289   41.7088    2.3557 C.2         1 M3S       0.2533
      3 O1         38.0406   41.8460    1.0020 O.3         1 M3S      -0.2144
      4 C2         36.9774   42.1615    0.2013 C.ar        1 M3S       0.1394
      5 C7         36.1134   41.1249   -0.2347 C.ar        1 M3S      -0.0078
      6 C1         36.3353   39.7099    0.1557 C.3         1 M3S      -0.0317
      7 C6         35.0213   41.4515   -1.0698 C.ar        1 M3S      -0.0652
      8 C5         34.8000   42.7730   -1.4695 C.ar        1 M3S      -0.0752
      9 C4         35.6791   43.7860   -1.0669 C.ar        1 M3S      -0.0620
     10 C3         36.7849   43.5066   -0.2288 C.ar        1 M3S       0.0373
     11 C8         37.6387   44.5781    0.1636 C.2         1 M3S       0.0573
     12 O10        38.4116   44.5178    1.2720 O.co2       1 M3S      -0.5642
     13 O9         37.6486   45.7703   -0.4859 O.co2       1 M3S      -0.5642
     14 C13        39.2707   41.3115    3.0326 C.3         1 M3S       0.0413
     15 H1         35.6078   39.0301   -0.2955 H           1 M3S       0.0370
     16 H2         36.2494   39.6135    1.2384 H           1 M3S       0.0370
     17 H3         37.3325   39.3869   -0.1540 H           1 M3S       0.0370
     18 H4         34.3767   40.7248   -1.3849 H           1 M3S       0.0549
     19 H5         33.9962   42.9911   -2.0560 H           1 M3S       0.0520
     20 H6         35.4833   44.7392   -1.3875 H           1 M3S       0.0566
     21 H7         39.1300   41.2915    4.1149 H           1 M3S       0.0485
     22 H8         40.0589   42.0228    2.7893 H           1 M3S       0.0485
     23 H9         39.5681   40.3183    2.6948 H           1 M3S       0.0485
@<TRIPOS>BOND
     1     1     2   2
     2     2     3   1
     3     2    14   1
     4     3     4   1
     5     4     5  ar
     6     4    10  ar
     7     5     6   1
     8     5     7  ar
     9     7     8  ar
    10     8     9  ar
    11     9    10  ar
    12    10    11   1
    13    11    12  ar
    14    11    13  ar
    15     6    15   1
    16     6    16   1
    17     6    17   1
    18     7    18   1
    19     8    19   1
    20     9    20   1
    21    14    21   1
    22    14    22   1
    23    14    23   1
@<TRIPOS>SUBSTRUCTURE
     1  M3S      2

