@<TRIPOS>MOLECULE
3fcq_ligand_039
    23    23
SMALL
GAST_HUCK
****
This file was generated by PARSER (from files_GN.cpp)

@<TRIPOS>ATOM
      1 O12        33.5272   37.6807   -8.2764 O.2         1 M3S      -0.3640
      2 C11        32.5482   38.3464   -7.6014 C.2         1 M3S       0.2533
      3 O1         32.2142   39.6263   -7.9631 O.3         1 M3S      -0.2144
      4 C2         32.6774   40.3654   -9.0293 C.ar        1 M3S       0.1394
      5 C7         33.3634   41.5709   -8.7362 C.ar        1 M3S      -0.0078
      6 C1         33.6007   42.0213   -7.3451 C.3         1 M3S      -0.0317
      7 C6         33.8583   42.3469   -9.8114 C.ar        1 M3S      -0.0652
      8 C5         33.6781   41.9458  -11.1447 C.ar        1 M3S      -0.0752
      9 C4         33.0121   40.7488  -11.4317 C.ar        1 M3S      -0.0620
     10 C3         32.4977   39.9587  -10.3769 C.ar        1 M3S       0.0373
     11 C8         31.7857   38.7818  -10.6767 C.2         1 M3S       0.0573
     12 O10        32.3737   37.8253  -11.4477 O.co2       1 M3S      -0.5642
     13 O9         30.4322   38.7885  -10.5780 O.co2       1 M3S      -0.5642
     14 C13        31.9033   37.7201   -6.4535 C.3         1 M3S       0.0413
     15 H1         34.1190   42.9826   -7.3037 H           1 M3S       0.0370
     16 H2         34.2119   41.2895   -6.8128 H           1 M3S       0.0370
     17 H3         32.6548   42.1422   -6.8064 H           1 M3S       0.0370
     18 H4         34.3613   43.2180   -9.6236 H           1 M3S       0.0549
     19 H5         34.0298   42.5388  -11.8983 H           1 M3S       0.0520
     20 H6         32.8737   40.4765  -12.4203 H           1 M3S       0.0566
     21 H7         32.3781   36.7640   -6.2330 H           1 M3S       0.0485
     22 H8         30.8507   37.5606   -6.6774 H           1 M3S       0.0485
     23 H9         31.9844   38.3577   -5.5690 H           1 M3S       0.0485
@<TRIPOS>BOND
     1     1     2   2
     2     2     3   1
     3     2    14   1
     4     3     4   1
     5     4     5  ar
     6     4    10  ar
     7     5     6   1
     8     5     7  ar
     9     7     8  ar
    10     8     9  ar
    11     9    10  ar
    12    10    11   1
    13    11    12  ar
    14    11    13  ar
    15     6    15   1
    16     6    16   1
    17     6    17   1
    18     7    18   1
    19     8    19   1
    20     9    20   1
    21    14    21   1
    22    14    22   1
    23    14    23   1
@<TRIPOS>SUBSTRUCTURE
     1  M3S      2

