@<TRIPOS>MOLECULE
3fcq_ligand_010
    23    23
SMALL
GAST_HUCK
****
This file was generated by PARSER (from files_GN.cpp)

@<TRIPOS>ATOM
      1 O12        31.9892   44.3140  -10.3937 O.2         1 M3S      -0.3640
      2 C11        32.8547   44.3877  -11.4285 C.2         1 M3S       0.2533
      3 O1         33.4565   43.2839  -11.9470 O.3         1 M3S      -0.2144
      4 C2         33.4263   41.9804  -11.5306 C.ar        1 M3S       0.1394
      5 C7         33.8277   41.6191  -10.2103 C.ar        1 M3S      -0.0078
      6 C1         34.3101   42.6110   -9.2240 C.3         1 M3S      -0.0317
      7 C6         33.8533   40.2483   -9.8587 C.ar        1 M3S      -0.0652
      8 C5         33.5321   39.2538  -10.7885 C.ar        1 M3S      -0.0752
      9 C4         33.1866   39.6149  -12.1007 C.ar        1 M3S      -0.0620
     10 C3         33.1307   40.9718  -12.4923 C.ar        1 M3S       0.0373
     11 C8         32.7756   41.2802  -13.8364 C.2         1 M3S       0.0573
     12 O10        32.0901   42.4024  -14.1654 O.co2       1 M3S      -0.5642
     13 O9         33.0453   40.4286  -14.8588 O.co2       1 M3S      -0.5642
     14 C13        33.0884   45.6766  -12.0914 C.3         1 M3S       0.0413
     15 H1         34.8048   42.1443   -8.3708 H           1 M3S       0.0370
     16 H2         33.4773   43.2027   -8.8419 H           1 M3S       0.0370
     17 H3         35.0369   43.2764   -9.6911 H           1 M3S       0.0370
     18 H4         34.1261   39.9603   -8.9142 H           1 M3S       0.0549
     19 H5         33.5605   38.2725  -10.5201 H           1 M3S       0.0520
     20 H6         32.9618   38.8621  -12.7611 H           1 M3S       0.0566
     21 H7         32.5547   46.4836  -11.5824 H           1 M3S       0.0485
     22 H8         32.7473   45.6262  -13.1269 H           1 M3S       0.0485
     23 H9         34.1569   45.8975  -12.0774 H           1 M3S       0.0485
@<TRIPOS>BOND
     1     1     2   2
     2     2     3   1
     3     2    14   1
     4     3     4   1
     5     4     5  ar
     6     4    10  ar
     7     5     6   1
     8     5     7  ar
     9     7     8  ar
    10     8     9  ar
    11     9    10  ar
    12    10    11   1
    13    11    12  ar
    14    11    13  ar
    15     6    15   1
    16     6    16   1
    17     6    17   1
    18     7    18   1
    19     8    19   1
    20     9    20   1
    21    14    21   1
    22    14    22   1
    23    14    23   1
@<TRIPOS>SUBSTRUCTURE
     1  M3S      2

