@<TRIPOS>MOLECULE
3fcq_ligand_012
    23    23
SMALL
GAST_HUCK
****
This file was generated by PARSER (from files_GN.cpp)

@<TRIPOS>ATOM
      1 O12        34.2569   41.4315   -8.9014 O.2         1 M3S      -0.3640
      2 C11        33.3771   42.0061   -8.0464 C.2         1 M3S       0.2533
      3 O1         32.0797   42.2149   -8.3995 O.3         1 M3S      -0.2144
      4 C2         31.5151   41.9519   -9.6200 C.ar        1 M3S       0.1394
      5 C7         31.4026   43.0192  -10.5515 C.ar        1 M3S      -0.0078
      6 C1         31.9850   44.3509  -10.2539 C.3         1 M3S      -0.0317
      7 C6         30.7180   42.8030  -11.7674 C.ar        1 M3S      -0.0652
      8 C5         30.1356   41.5588  -12.0471 C.ar        1 M3S      -0.0752
      9 C4         30.2304   40.5133  -11.1154 C.ar        1 M3S      -0.0620
     10 C3         30.9275   40.6862   -9.8978 C.ar        1 M3S       0.0373
     11 C8         31.0191   39.5919   -9.0030 C.2         1 M3S       0.0573
     12 O10        30.0493   38.6543   -8.9227 O.co2       1 M3S      -0.5642
     13 O9         32.1349   39.3533   -8.2827 O.co2       1 M3S      -0.5642
     14 C13        33.8131   42.4057   -6.7043 C.3         1 M3S       0.0413
     15 H1         31.8233   45.0685  -11.0609 H           1 M3S       0.0370
     16 H2         33.0607   44.2585  -10.0937 H           1 M3S       0.0370
     17 H3         31.5225   44.7464   -9.3473 H           1 M3S       0.0370
     18 H4         30.6147   43.5547  -12.4514 H           1 M3S       0.0549
     19 H5         29.6182   41.4165  -12.9187 H           1 M3S       0.0520
     20 H6         29.8049   39.6110  -11.3537 H           1 M3S       0.0566
     21 H7         34.8561   42.1420   -6.5370 H           1 M3S       0.0485
     22 H8         33.1961   41.9166   -5.9539 H           1 M3S       0.0485
     23 H9         33.7040   43.4863   -6.6039 H           1 M3S       0.0485
@<TRIPOS>BOND
     1     1     2   2
     2     2     3   1
     3     2    14   1
     4     3     4   1
     5     4     5  ar
     6     4    10  ar
     7     5     6   1
     8     5     7  ar
     9     7     8  ar
    10     8     9  ar
    11     9    10  ar
    12    10    11   1
    13    11    12  ar
    14    11    13  ar
    15     6    15   1
    16     6    16   1
    17     6    17   1
    18     7    18   1
    19     8    19   1
    20     9    20   1
    21    14    21   1
    22    14    22   1
    23    14    23   1
@<TRIPOS>SUBSTRUCTURE
     1  M3S      2

