@<TRIPOS>MOLECULE
3fk1_ligand_008
    16    15
SMALL
GAST_HUCK
****
This file was generated by PARSER (from files_GN.cpp)

@<TRIPOS>ATOM
      1 C1         60.6028    9.0501   28.9791 C.3         1 GPF       0.0369
      2 C2         58.9663    7.9741   30.5573 C.3         1 GPF       0.0207
      3 C3         57.7845    8.8293   30.3222 C.2         1 GPF       0.0813
      4 O1         61.7733   10.2384   27.0594 O.co2       1 GPF      -0.5587
      5 O2         59.8020    9.1134   26.5636 O.co2       1 GPF      -0.5587
      6 O3         61.7517    7.9048   26.9859 O.co2       1 GPF      -0.5587
      7 O4         57.9195   10.0990   29.8813 O.co2       1 GPF      -0.5645
      8 P1         60.9948    9.0669   27.3691 P.3         1 GPF       0.1070
      9 O5         56.5638    8.4530   30.7616 O.co2       1 GPF      -0.5645
     10 N1         59.8423    7.8371   29.3681 N.4         1 GPF       0.2507
     11 H1         60.0176    9.9470   29.1700 H           1 GPF       0.1013
     12 H2         61.5209    9.1017   29.5677 H           1 GPF       0.1013
     13 H3         58.6246    6.9709   30.8226 H           1 GPF       0.0989
     14 H4         59.5307    8.3634   31.4084 H           1 GPF       0.0989
     15 H5         60.5260    7.0981   29.5692 H           1 GPF       0.2042
     16 H6         59.2610    7.5341   28.5828 H           1 GPF       0.2042
@<TRIPOS>BOND
     1     1     8   1
     2    10     1   1
     3     2     3   1
     4     2    10   1
     5     3     7  ar
     6     3     9  ar
     7     8     4  ar
     8     8     5  ar
     9     8     6  ar
    10     1    11   1
    11     1    12   1
    12     2    13   1
    13     2    14   1
    14    10    15   1
    15    10    16   1
@<TRIPOS>SUBSTRUCTURE
     1  GPF      1

