@<TRIPOS>MOLECULE
3fk1_ligand_019
    16    15
SMALL
GAST_HUCK
****
This file was generated by PARSER (from files_GN.cpp)

@<TRIPOS>ATOM
      1 C1         53.5368   10.3330   28.5483 C.3         1 GPF       0.0369
      2 C2         55.3133   11.9879   27.6619 C.3         1 GPF       0.0207
      3 C3         56.2999   11.3943   28.5754 C.2         1 GPF       0.0813
      4 O1         53.8818    7.8966   29.2964 O.co2       1 GPF      -0.5587
      5 O2         54.9333    8.5451   27.3115 O.co2       1 GPF      -0.5587
      6 O3         52.6327    8.2447   27.3845 O.co2       1 GPF      -0.5587
      7 O4         56.8284   10.1733   28.3278 O.co2       1 GPF      -0.5645
      8 P1         53.7637    8.7356   28.1304 P.3         1 GPF       0.1070
      9 O5         56.5960   11.9924   29.7538 O.co2       1 GPF      -0.5645
     10 N1         54.0176   11.2825   27.5044 N.4         1 GPF       0.2507
     11 H1         53.9980   10.5336   29.5115 H           1 GPF       0.1013
     12 H2         52.4635   10.5005   28.6732 H           1 GPF       0.1013
     13 H3         55.7724   12.0656   26.6734 H           1 GPF       0.0989
     14 H4         55.1021   13.0091   27.9927 H           1 GPF       0.0989
     15 H5         53.3032   12.0152   27.4247 H           1 GPF       0.2042
     16 H6         54.0322   10.7823   26.6073 H           1 GPF       0.2042
@<TRIPOS>BOND
     1     1     8   1
     2    10     1   1
     3     2     3   1
     4     2    10   1
     5     3     7  ar
     6     3     9  ar
     7     8     4  ar
     8     8     5  ar
     9     8     6  ar
    10     1    11   1
    11     1    12   1
    12     2    13   1
    13     2    14   1
    14    10    15   1
    15    10    16   1
@<TRIPOS>SUBSTRUCTURE
     1  GPF      1

