@<TRIPOS>MOLECULE
3fk1_ligand_023
    16    15
SMALL
GAST_HUCK
****
This file was generated by PARSER (from files_GN.cpp)

@<TRIPOS>ATOM
      1 C1         57.1491   10.3140   29.0808 C.3         1 GPF       0.0369
      2 C2         55.4102    9.5915   30.7763 C.3         1 GPF       0.0207
      3 C3         55.3920    9.2757   32.2122 C.2         1 GPF       0.0813
      4 O1         57.1500   12.2289   30.8135 O.co2       1 GPF      -0.5587
      5 O2         56.3658   12.7224   28.6874 O.co2       1 GPF      -0.5587
      6 O3         58.6435   12.4150   29.0524 O.co2       1 GPF      -0.5587
      7 O4         55.7750    8.0559   32.6473 O.co2       1 GPF      -0.5645
      8 P1         57.3327   11.9398   29.4141 P.3         1 GPF       0.1070
      9 O5         55.0955   10.2169   33.1374 O.co2       1 GPF      -0.5645
     10 N1         56.7941    9.4815   30.2539 N.4         1 GPF       0.2507
     11 H1         58.1002    9.9380   28.7010 H           1 GPF       0.1013
     12 H2         56.4062   10.1777   28.2942 H           1 GPF       0.1013
     13 H3         55.0148   10.5964   30.6285 H           1 GPF       0.0989
     14 H4         54.7630    8.8892   30.2469 H           1 GPF       0.0989
     15 H5         57.4481    9.7085   31.0037 H           1 GPF       0.2042
     16 H6         56.9495    8.5033   29.9959 H           1 GPF       0.2042
@<TRIPOS>BOND
     1     1     8   1
     2    10     1   1
     3     2     3   1
     4     2    10   1
     5     3     7  ar
     6     3     9  ar
     7     8     4  ar
     8     8     5  ar
     9     8     6  ar
    10     1    11   1
    11     1    12   1
    12     2    13   1
    13     2    14   1
    14    10    15   1
    15    10    16   1
@<TRIPOS>SUBSTRUCTURE
     1  GPF      1

