@<TRIPOS>MOLECULE
3fk1_ligand_001
    16    15
SMALL
GAST_HUCK
****
This file was generated by PARSER (from files_GN.cpp)

@<TRIPOS>ATOM
      1 C1         57.5622    8.2768   29.3977 C.3         1 GPF       0.0369
      2 C2         59.9144    8.6566   30.1261 C.3         1 GPF       0.0207
      3 C3         60.5834    9.1320   31.3457 C.2         1 GPF       0.0813
      4 O1         55.9617    9.8134   28.1577 O.co2       1 GPF      -0.5587
      5 O2         55.7776    9.7717   30.4952 O.co2       1 GPF      -0.5587
      6 O3         55.0346    7.9675   29.2194 O.co2       1 GPF      -0.5587
      7 O4         60.9861   10.4166   31.4694 O.co2       1 GPF      -0.5645
      8 P1         56.0606    8.9736   29.3271 P.3         1 GPF       0.1070
      9 O5         60.8764    8.2717   32.3410 O.co2       1 GPF      -0.5645
     10 N1         58.5236    9.1593   30.0887 N.4         1 GPF       0.2507
     11 H1         57.9111    8.0602   28.3840 H           1 GPF       0.1013
     12 H2         57.4894    7.3409   29.9539 H           1 GPF       0.1013
     13 H3         59.9465    7.5624   30.1151 H           1 GPF       0.0989
     14 H4         60.4547    9.0226   29.2477 H           1 GPF       0.0989
     15 H5         58.2070    9.2607   31.0531 H           1 GPF       0.2042
     16 H6         58.5197   10.0805   29.6492 H           1 GPF       0.2042
@<TRIPOS>BOND
     1     1     8   1
     2    10     1   1
     3     2     3   1
     4     2    10   1
     5     3     7  ar
     6     3     9  ar
     7     8     4  ar
     8     8     5  ar
     9     8     6  ar
    10     1    11   1
    11     1    12   1
    12     2    13   1
    13     2    14   1
    14    10    15   1
    15    10    16   1
@<TRIPOS>SUBSTRUCTURE
     1  GPF      1

