@<TRIPOS>MOLECULE
3fk1_ligand_021
    16    15
SMALL
GAST_HUCK
****
This file was generated by PARSER (from files_GN.cpp)

@<TRIPOS>ATOM
      1 C1         58.6351    9.6833   29.1753 C.3         1 GPF       0.0369
      2 C2         56.3324   10.1136   30.0126 C.3         1 GPF       0.0207
      3 C3         55.3107    9.6147   30.9438 C.2         1 GPF       0.0813
      4 O1         59.8673    7.7704   28.0107 O.co2       1 GPF      -0.5587
      5 O2         59.9104    7.7819   30.3582 O.co2       1 GPF      -0.5587
      6 O3         61.1472    9.3299   29.1485 O.co2       1 GPF      -0.5587
      7 O4         54.5439    8.5629   30.5854 O.co2       1 GPF      -0.5645
      8 P1         59.9060    8.6021   29.1842 P.3         1 GPF       0.1070
      9 O5         55.3482    9.9768   32.2446 O.co2       1 GPF      -0.5645
     10 N1         57.5176    9.2342   30.0345 N.4         1 GPF       0.2507
     11 H1         58.2885    9.8087   28.1477 H           1 GPF       0.1013
     12 H2         58.9873   10.6515   29.5314 H           1 GPF       0.1013
     13 H3         56.6183   11.1263   30.2988 H           1 GPF       0.0989
     14 H4         55.9098   10.1501   29.0094 H           1 GPF       0.0989
     15 H5         57.8384    9.1924   31.0026 H           1 GPF       0.2042
     16 H6         57.2412    8.2927   29.7522 H           1 GPF       0.2042
@<TRIPOS>BOND
     1     1     8   1
     2    10     1   1
     3     2     3   1
     4     2    10   1
     5     3     7  ar
     6     3     9  ar
     7     8     4  ar
     8     8     5  ar
     9     8     6  ar
    10     1    11   1
    11     1    12   1
    12     2    13   1
    13     2    14   1
    14    10    15   1
    15    10    16   1
@<TRIPOS>SUBSTRUCTURE
     1  GPF      1

