@<TRIPOS>MOLECULE
3fk1_ligand_013
    16    15
SMALL
GAST_HUCK
****
This file was generated by PARSER (from files_GN.cpp)

@<TRIPOS>ATOM
      1 C1         57.8600   10.5985   28.4301 C.3         1 GPF       0.0369
      2 C2         59.4990    8.6963   28.2203 C.3         1 GPF       0.0207
      3 C3         60.4380    9.1192   27.1586 C.2         1 GPF       0.0813
      4 O1         56.4701   12.7187   28.6545 O.co2       1 GPF      -0.5587
      5 O2         58.6502   12.7678   29.4740 O.co2       1 GPF      -0.5587
      6 O3         57.0019   11.6166   30.6453 O.co2       1 GPF      -0.5587
      7 O4         61.0397    8.1867   26.3882 O.co2       1 GPF      -0.5645
      8 P1         57.4803   11.9422   29.3270 P.3         1 GPF       0.1070
      9 O5         60.8051   10.4066   26.9750 O.co2       1 GPF      -0.5645
     10 N1         58.9412    9.7943   29.0500 N.4         1 GPF       0.2507
     11 H1         58.1660   10.9368   27.4385 H           1 GPF       0.1013
     12 H2         56.9639    9.9822   28.3350 H           1 GPF       0.1013
     13 H3         60.0439    8.0290   28.8912 H           1 GPF       0.0989
     14 H4         58.6855    8.1225   27.7689 H           1 GPF       0.0989
     15 H5         58.5695    9.3833   29.9110 H           1 GPF       0.2042
     16 H6         59.7087   10.4112   29.3100 H           1 GPF       0.2042
@<TRIPOS>BOND
     1     1     8   1
     2    10     1   1
     3     2     3   1
     4     2    10   1
     5     3     7  ar
     6     3     9  ar
     7     8     4  ar
     8     8     5  ar
     9     8     6  ar
    10     1    11   1
    11     1    12   1
    12     2    13   1
    13     2    14   1
    14    10    15   1
    15    10    16   1
@<TRIPOS>SUBSTRUCTURE
     1  GPF      1

