@<TRIPOS>MOLECULE
3fk1_ligand_006
    16    15
SMALL
GAST_HUCK
****
This file was generated by PARSER (from files_GN.cpp)

@<TRIPOS>ATOM
      1 C1         54.6220   11.0579   28.2332 C.3         1 GPF       0.0369
      2 C2         53.5996    8.8333   27.5921 C.3         1 GPF       0.0207
      3 C3         52.8038    7.7847   28.2439 C.2         1 GPF       0.0813
      4 O1         55.9394   11.9149   26.2122 O.co2       1 GPF      -0.5587
      5 O2         54.4631   13.3894   27.1419 O.co2       1 GPF      -0.5587
      6 O3         53.6431   11.6406   25.8837 O.co2       1 GPF      -0.5587
      7 O4         51.7512    7.2006   27.6290 O.co2       1 GPF      -0.5645
      8 P1         54.6509   11.9918   26.8513 P.3         1 GPF       0.1070
      9 O5         53.1637    7.3218   29.4593 O.co2       1 GPF      -0.5645
     10 N1         53.4888   10.1020   28.3480 N.4         1 GPF       0.2507
     11 H1         54.5558   11.7299   29.0907 H           1 GPF       0.1013
     12 H2         55.5677   10.5229   28.3346 H           1 GPF       0.1013
     13 H3         53.2416    8.9934   26.5697 H           1 GPF       0.0989
     14 H4         54.6348    8.4890   27.5405 H           1 GPF       0.0989
     15 H5         52.6230   10.5681   28.0635 H           1 GPF       0.2042
     16 H6         53.4060    9.8637   29.3412 H           1 GPF       0.2042
@<TRIPOS>BOND
     1     1     8   1
     2    10     1   1
     3     2     3   1
     4     2    10   1
     5     3     7  ar
     6     3     9  ar
     7     8     4  ar
     8     8     5  ar
     9     8     6  ar
    10     1    11   1
    11     1    12   1
    12     2    13   1
    13     2    14   1
    14    10    15   1
    15    10    16   1
@<TRIPOS>SUBSTRUCTURE
     1  GPF      1

