@<TRIPOS>MOLECULE
3fk1_ligand_007
    16    15
SMALL
GAST_HUCK
****
This file was generated by PARSER (from files_GN.cpp)

@<TRIPOS>ATOM
      1 C1         54.1816    9.4877   28.7606 C.3         1 GPF       0.0369
      2 C2         55.1207   11.6841   27.9996 C.3         1 GPF       0.0207
      3 C3         54.8333   12.8608   27.1705 C.2         1 GPF       0.0813
      4 O1         54.9775    7.6627   27.1845 O.co2       1 GPF      -0.5587
      5 O2         52.6684    8.0870   27.2390 O.co2       1 GPF      -0.5587
      6 O3         53.7078    7.0238   29.0418 O.co2       1 GPF      -0.5587
      7 O4         55.6946   13.9002   27.1428 O.co2       1 GPF      -0.5645
      8 P1         53.8707    8.0338   28.0292 P.3         1 GPF       0.1070
      9 O5         53.6951   12.9703   26.4518 O.co2       1 GPF      -0.5645
     10 N1         54.1541   10.5866   27.7677 N.4         1 GPF       0.2507
     11 H1         55.1488    9.4099   29.2663 H           1 GPF       0.1013
     12 H2         53.4150    9.6819   29.5149 H           1 GPF       0.1013
     13 H3         55.1132   11.9916   29.0467 H           1 GPF       0.0989
     14 H4         56.1216   11.3242   27.7475 H           1 GPF       0.0989
     15 H5         53.2014   10.9637   27.7475 H           1 GPF       0.2042
     16 H6         54.3447   10.2037   26.8377 H           1 GPF       0.2042
@<TRIPOS>BOND
     1     1     8   1
     2    10     1   1
     3     2     3   1
     4     2    10   1
     5     3     7  ar
     6     3     9  ar
     7     8     4  ar
     8     8     5  ar
     9     8     6  ar
    10     1    11   1
    11     1    12   1
    12     2    13   1
    13     2    14   1
    14    10    15   1
    15    10    16   1
@<TRIPOS>SUBSTRUCTURE
     1  GPF      1

