@<TRIPOS>MOLECULE
3fk1_ligand_003
    16    15
SMALL
GAST_HUCK
****
This file was generated by PARSER (from files_GN.cpp)

@<TRIPOS>ATOM
      1 C1         59.6846    9.2344   29.4639 C.3         1 GPF       0.0369
      2 C2         61.5496    8.9251   27.7730 C.3         1 GPF       0.0207
      3 C3         60.7381    9.4476   26.6633 C.2         1 GPF       0.0813
      4 O1         58.0566    7.3057   29.1979 O.co2       1 GPF      -0.5587
      5 O2         57.3768    9.1128   30.5089 O.co2       1 GPF      -0.5587
      6 O3         59.0302    7.6322   31.3137 O.co2       1 GPF      -0.5587
      7 O4         60.7558   10.7707   26.3698 O.co2       1 GPF      -0.5645
      8 P1         58.5096    8.2925   30.1455 P.3         1 GPF       0.1070
      9 O5         59.8857    8.6569   25.9789 O.co2       1 GPF      -0.5645
     10 N1         60.7601    8.3796   28.9014 N.4         1 GPF       0.2507
     11 H1         60.0883    9.8972   30.2312 H           1 GPF       0.1013
     12 H2         59.2168    9.8375   28.6918 H           1 GPF       0.1013
     13 H3         62.2127    9.7048   28.1508 H           1 GPF       0.0989
     14 H4         62.1685    8.1146   27.3926 H           1 GPF       0.0989
     15 H5         60.3523    7.4915   28.5949 H           1 GPF       0.2042
     16 H6         61.4254    8.1569   29.6445 H           1 GPF       0.2042
@<TRIPOS>BOND
     1     1     8   1
     2    10     1   1
     3     2     3   1
     4     2    10   1
     5     3     7  ar
     6     3     9  ar
     7     8     4  ar
     8     8     5  ar
     9     8     6  ar
    10     1    11   1
    11     1    12   1
    12     2    13   1
    13     2    14   1
    14    10    15   1
    15    10    16   1
@<TRIPOS>SUBSTRUCTURE
     1  GPF      1

