@<TRIPOS>MOLECULE
3fk1_ligand_015
    16    15
SMALL
GAST_HUCK
****
This file was generated by PARSER (from files_GN.cpp)

@<TRIPOS>ATOM
      1 C1         58.8798    9.6558   30.0685 C.3         1 GPF       0.0369
      2 C2         60.8850    8.6803   28.9292 C.3         1 GPF       0.0207
      3 C3         61.2181    7.8350   27.7782 C.2         1 GPF       0.0813
      4 O1         56.7235   10.8557   30.7040 O.co2       1 GPF      -0.5587
      5 O2         56.6374    8.5394   30.5348 O.co2       1 GPF      -0.5587
      6 O3         56.7553    9.8442   28.5995 O.co2       1 GPF      -0.5587
      7 O4         61.7328    8.3632   26.6359 O.co2       1 GPF      -0.5645
      8 P1         57.2161    9.7242   29.9610 P.3         1 GPF       0.1070
      9 O5         60.9869    6.5074   27.8298 O.co2       1 GPF      -0.5645
     10 N1         59.4805    9.1282   28.8234 N.4         1 GPF       0.2507
     11 H1         59.1290    9.0257   30.9294 H           1 GPF       0.1013
     12 H2         59.2814   10.6542   30.2595 H           1 GPF       0.1013
     13 H3         61.5527    9.5373   28.9530 H           1 GPF       0.0989
     14 H4         61.0470    8.0819   29.8303 H           1 GPF       0.0989
     15 H5         59.4235    9.8649   28.1101 H           1 GPF       0.2042
     16 H6         58.9118    8.3396   28.5065 H           1 GPF       0.2042
@<TRIPOS>BOND
     1     1     8   1
     2    10     1   1
     3     2     3   1
     4     2    10   1
     5     3     7  ar
     6     3     9  ar
     7     8     4  ar
     8     8     5  ar
     9     8     6  ar
    10     1    11   1
    11     1    12   1
    12     2    13   1
    13     2    14   1
    14    10    15   1
    15    10    16   1
@<TRIPOS>SUBSTRUCTURE
     1  GPF      1

