@<TRIPOS>MOLECULE
3fk1_ligand_020
    16    15
SMALL
GAST_HUCK
****
This file was generated by PARSER (from files_GN.cpp)

@<TRIPOS>ATOM
      1 C1         53.4853    9.9812   29.1553 C.3         1 GPF       0.0369
      2 C2         55.1874    9.5802   30.9767 C.3         1 GPF       0.0207
      3 C3         55.2902    9.2473   32.3995 C.2         1 GPF       0.0813
      4 O1         55.0031    9.0371   27.3473 O.co2       1 GPF      -0.5587
      5 O2         52.7272    8.5359   27.1693 O.co2       1 GPF      -0.5587
      6 O3         53.9968    7.4902   28.7945 O.co2       1 GPF      -0.5587
      7 O4         55.7651    8.0429   32.7890 O.co2       1 GPF      -0.5645
      8 P1         53.8105    8.7368   28.0958 P.3         1 GPF       0.1070
      9 O5         54.9699   10.1603   33.3448 O.co2       1 GPF      -0.5645
     10 N1         53.7578    9.6589   30.5797 N.4         1 GPF       0.2507
     11 H1         52.4239   10.2135   29.0790 H           1 GPF       0.1013
     12 H2         54.0278   10.8793   28.8531 H           1 GPF       0.1013
     13 H3         55.7046    8.8172   30.3980 H           1 GPF       0.0989
     14 H4         55.6851   10.5383   30.7963 H           1 GPF       0.0989
     15 H5         53.2739    8.7883   30.8005 H           1 GPF       0.2042
     16 H6         53.3223   10.3832   31.1483 H           1 GPF       0.2042
@<TRIPOS>BOND
     1     1     8   1
     2    10     1   1
     3     2     3   1
     4     2    10   1
     5     3     7  ar
     6     3     9  ar
     7     8     4  ar
     8     8     5  ar
     9     8     6  ar
    10     1    11   1
    11     1    12   1
    12     2    13   1
    13     2    14   1
    14    10    15   1
    15    10    16   1
@<TRIPOS>SUBSTRUCTURE
     1  GPF      1

