@<TRIPOS>MOLECULE
3fk1_ligand_029
    16    15
SMALL
GAST_HUCK
****
This file was generated by PARSER (from files_GN.cpp)

@<TRIPOS>ATOM
      1 C1         53.8843    9.4004   30.7029 C.3         1 GPF       0.0369
      2 C2         54.4082    9.0155   28.2667 C.3         1 GPF       0.0207
      3 C3         53.8013    9.3465   26.9714 C.2         1 GPF       0.0813
      4 O1         56.0932   10.7317   30.8445 O.co2       1 GPF      -0.5587
      5 O2         56.1324    8.4556   31.3916 O.co2       1 GPF      -0.5587
      6 O3         55.1416    9.9676   32.8485 O.co2       1 GPF      -0.5587
      7 O4         52.8500    8.5511   26.4381 O.co2       1 GPF      -0.5645
      8 P1         55.3456    9.6586   31.4534 P.3         1 GPF       0.1070
      9 O5         54.0176   10.5650   26.4193 O.co2       1 GPF      -0.5645
     10 N1         53.8203    9.8902   29.3060 N.4         1 GPF       0.2507
     11 H1         53.1164    9.9318   31.2707 H           1 GPF       0.1013
     12 H2         53.6358    8.3346   30.7518 H           1 GPF       0.1013
     13 H3         55.4902    9.1632   28.2042 H           1 GPF       0.0989
     14 H4         54.2122    7.9686   28.5052 H           1 GPF       0.0989
     15 H5         54.2574   10.8142   29.2537 H           1 GPF       0.2042
     16 H6         52.8304   10.0051   29.0712 H           1 GPF       0.2042
@<TRIPOS>BOND
     1     1     8   1
     2    10     1   1
     3     2     3   1
     4     2    10   1
     5     3     7  ar
     6     3     9  ar
     7     8     4  ar
     8     8     5  ar
     9     8     6  ar
    10     1    11   1
    11     1    12   1
    12     2    13   1
    13     2    14   1
    14    10    15   1
    15    10    16   1
@<TRIPOS>SUBSTRUCTURE
     1  GPF      1

