@<TRIPOS>MOLECULE
3fk1_ligand_002
    16    15
SMALL
GAST_HUCK
****
This file was generated by PARSER (from files_GN.cpp)

@<TRIPOS>ATOM
      1 C1         57.6316    7.9428   29.6273 C.3         1 GPF       0.0369
      2 C2         59.9928    8.7595   30.0912 C.3         1 GPF       0.0207
      3 C3         60.5889    9.1962   31.3590 C.2         1 GPF       0.0813
      4 O1         58.6480    8.5032   27.3358 O.co2       1 GPF      -0.5587
      5 O2         56.4150    7.7897   27.3747 O.co2       1 GPF      -0.5587
      6 O3         58.1238    6.2787   27.7624 O.co2       1 GPF      -0.5587
      7 O4         60.9193    8.2905   32.3035 O.co2       1 GPF      -0.5645
      8 P1         57.7060    7.6364   27.9944 P.3         1 GPF       0.1070
      9 O5         61.0307   10.4623   31.5136 O.co2       1 GPF      -0.5645
     10 N1         58.5317    9.0054   30.1301 N.4         1 GPF       0.2507
     11 H1         57.8327    7.0225   30.1717 H           1 GPF       0.1013
     12 H2         56.6133    8.2397   29.8727 H           1 GPF       0.1013
     13 H3         60.2149    7.7010   29.9340 H           1 GPF       0.0989
     14 H4         60.4310    9.3278   29.2674 H           1 GPF       0.0989
     15 H5         58.2759    9.1550   31.1041 H           1 GPF       0.2042
     16 H6         58.3345    9.8725   29.6273 H           1 GPF       0.2042
@<TRIPOS>BOND
     1     1     8   1
     2    10     1   1
     3     2     3   1
     4     2    10   1
     5     3     7  ar
     6     3     9  ar
     7     8     4  ar
     8     8     5  ar
     9     8     6  ar
    10     1    11   1
    11     1    12   1
    12     2    13   1
    13     2    14   1
    14    10    15   1
    15    10    16   1
@<TRIPOS>SUBSTRUCTURE
     1  GPF      1

