@<TRIPOS>MOLECULE
3fk1_ligand_005
    16    15
SMALL
GAST_HUCK
****
This file was generated by PARSER (from files_GN.cpp)

@<TRIPOS>ATOM
      1 C1         59.1485    7.2667   29.5099 C.3         1 GPF       0.0369
      2 C2         60.7592    9.0969   28.6637 C.3         1 GPF       0.0207
      3 C3         60.8420    8.5273   27.3084 C.2         1 GPF       0.0813
      4 O1         57.8684    9.2086   28.2164 O.co2       1 GPF      -0.5587
      5 O2         56.6746    8.0721   29.8221 O.co2       1 GPF      -0.5587
      6 O3         57.2407    7.0387   27.8501 O.co2       1 GPF      -0.5587
      7 O4         59.7264    8.4594   26.5414 O.co2       1 GPF      -0.5645
      8 P1         57.7548    7.9357   28.8613 P.3         1 GPF       0.1070
      9 O5         62.0358    8.4771   26.6743 O.co2       1 GPF      -0.5645
     10 N1         60.3083    8.1678   29.7303 N.4         1 GPF       0.2507
     11 H1         59.4815    6.4341   28.8727 H           1 GPF       0.1013
     12 H2         58.8931    6.8353   30.4797 H           1 GPF       0.1013
     13 H3         60.1024    9.9664   28.6450 H           1 GPF       0.0989
     14 H4         61.7412    9.4596   28.9597 H           1 GPF       0.0989
     15 H5         61.1086    7.5653   29.9228 H           1 GPF       0.2042
     16 H6         60.1189    8.7195   30.5630 H           1 GPF       0.2042
@<TRIPOS>BOND
     1     1     8   1
     2    10     1   1
     3     2     3   1
     4     2    10   1
     5     3     7  ar
     6     3     9  ar
     7     8     4  ar
     8     8     5  ar
     9     8     6  ar
    10     1    11   1
    11     1    12   1
    12     2    13   1
    13     2    14   1
    14    10    15   1
    15    10    16   1
@<TRIPOS>SUBSTRUCTURE
     1  GPF      1

