@<TRIPOS>MOLECULE
3fk1_ligand_009
    16    15
SMALL
GAST_HUCK
****
This file was generated by PARSER (from files_GN.cpp)

@<TRIPOS>ATOM
      1 C1         60.2685    8.5930   29.3933 C.3         1 GPF       0.0369
      2 C2         57.7686    8.4055   29.8874 C.3         1 GPF       0.0207
      3 C3         57.0862    8.4268   28.5886 C.2         1 GPF       0.0813
      4 O1         59.3944    8.7530   26.9393 O.co2       1 GPF      -0.5587
      5 O2         61.4927    7.8327   27.2517 O.co2       1 GPF      -0.5587
      6 O3         61.1692   10.1135   27.5432 O.co2       1 GPF      -0.5587
      7 O4         57.1329    7.3596   27.7434 O.co2       1 GPF      -0.5645
      8 P1         60.5722    8.8189   27.7676 P.3         1 GPF       0.1070
      9 O5         56.3777    9.5257   28.2215 O.co2       1 GPF      -0.5645
     10 N1         59.0086    9.2324   29.8825 N.4         1 GPF       0.2507
     11 H1         61.0874    9.0529   29.9457 H           1 GPF       0.1013
     12 H2         60.2731    7.5259   29.6130 H           1 GPF       0.1013
     13 H3         57.9851    7.3775   30.1795 H           1 GPF       0.0989
     14 H4         57.0738    8.8175   30.6242 H           1 GPF       0.0989
     15 H5         58.8198   10.0836   29.3432 H           1 GPF       0.2042
     16 H6         59.1388    9.5151   30.8551 H           1 GPF       0.2042
@<TRIPOS>BOND
     1     1     8   1
     2    10     1   1
     3     2     3   1
     4     2    10   1
     5     3     7  ar
     6     3     9  ar
     7     8     4  ar
     8     8     5  ar
     9     8     6  ar
    10     1    11   1
    11     1    12   1
    12     2    13   1
    13     2    14   1
    14    10    15   1
    15    10    16   1
@<TRIPOS>SUBSTRUCTURE
     1  GPF      1

