@<TRIPOS>MOLECULE
3fv1_ligand_001
    41    42
SMALL
GAST_HUCK
****
This file was generated by PARSER (from files_GN.cpp)

@<TRIPOS>ATOM
      1 CAA       -10.5260   18.8249   21.0581 C.3         1 DYH      -0.0444
      2 NH        -11.4517   17.8650   21.6908 N.4         1 DYH       0.2308
      3 CAH       -11.4723   16.4439   21.2357 C.3         1 DYH       0.0349
      4 CAG       -11.6813   15.5253   22.4733 C.3         1 DYH       0.1232
      5 OAC       -10.6024   15.6970   23.3950 O.3         1 DYH      -0.3838
      6 CAP       -11.7703   14.0432   22.0258 C.3         1 DYH       0.0794
      7 OAQ       -10.5792   13.6531   21.3180 O.3         1 DYH      -0.3710
      8 CAR       -10.3364   14.4153   20.1149 C.3         1 DYH       0.0923
      9 CAS        -8.9066   14.1854   19.6349 C.3         1 DYH       0.0103
     10 CAI       -10.2888   15.9385   20.3510 C.3         1 DYH       0.1293
     11 OAJ        -9.0016   16.1833   20.9337 O.3         1 DYH      -0.3574
     12 CAK        -8.0514   15.2113   20.4410 C.3         1 DYH       0.1231
     13 CAE        -7.4541   14.6482   21.6821 C.2         1 DYH       0.0769
     14 OAB        -7.5533   13.3470   22.0182 O.co2       1 DYH      -0.5451
     15 OAF        -6.9515   15.4818   22.6222 O.co2       1 DYH      -0.5451
     16 CB         -6.9617   15.9481   19.5774 C.3         1 DYH       0.0363
     17 CA         -6.1238   15.1390   18.5142 C.3         1 DYH       0.0305
     18 C          -4.6720   15.4407   18.4468 C.2         1 DYH       0.0844
     19 OXT        -4.0481   16.3665   19.2068 O.co2       1 DYH      -0.5643
     20 O          -3.9143   14.7864   17.5374 O.co2       1 DYH      -0.5643
     21 N          -6.2838   13.6778   18.6068 N.4         1 DYH       0.2327
     22 H1        -10.8366   19.8382   21.3224 H           1 DYH       0.0777
     23 H2        -10.5583   18.7355   19.9695 H           1 DYH       0.0777
     24 H3         -9.5072   18.6552   21.4176 H           1 DYH       0.0777
     25 H4        -12.3874   18.2376   21.5149 H           1 DYH       0.2015
     26 H5        -11.2883   17.8873   22.7048 H           1 DYH       0.2015
     27 H6        -12.3663   16.3486   20.6184 H           1 DYH       0.0904
     28 H7        -12.6138   15.7971   22.9807 H           1 DYH       0.0674
     29 H8        -10.6568   14.9391   24.0145 H           1 DYH       0.2101
     30 H9        -12.6519   13.8835   21.3994 H           1 DYH       0.0588
     31 H10       -11.8732   13.4060   22.9040 H           1 DYH       0.0588
     32 H11       -11.0581   14.1360   19.3435 H           1 DYH       0.0624
     33 H12        -8.8675   14.4195   18.5717 H           1 DYH       0.0311
     34 H13        -8.6176   13.1383   19.7615 H           1 DYH       0.0311
     35 H14       -10.3328   16.4496   19.3807 H           1 DYH       0.0679
     36 H15        -6.2910   16.4620   20.2663 H           1 DYH       0.0359
     37 H16        -7.4730   16.7479   19.0324 H           1 DYH       0.0359
     38 H17        -6.5202   15.4049   17.5275 H           1 DYH       0.1024
     39 H18        -5.5565   13.1861   18.0852 H           1 DYH       0.2010
     40 H19        -7.1916   13.4286   18.1984 H           1 DYH       0.2010
     41 H20        -6.2454   13.3777   19.5836 H           1 DYH       0.2010
@<TRIPOS>BOND
     1     1     2   1
     2     2     3   1
     3     3     4   1
     4     3    10   1
     5     4     5   1
     6     4     6   1
     7     6     7   1
     8     7     8   1
     9     8     9   1
    10     8    10   1
    11     9    12   1
    12    10    11   1
    13    11    12   1
    14    12    13   1
    15    12    16   1
    16    13    14  ar
    17    13    15  ar
    18    16    17   1
    19    17    18   1
    20    17    21   1
    21    18    19  ar
    22    18    20  ar
    23     1    22   1
    24     1    23   1
    25     1    24   1
    26     2    25   1
    27     2    26   1
    28     3    27   1
    29     4    28   1
    30     5    29   1
    31     6    30   1
    32     6    31   1
    33     8    32   1
    34     9    33   1
    35     9    34   1
    36    10    35   1
    37    16    36   1
    38    16    37   1
    39    17    38   1
    40    21    39   1
    41    21    40   1
    42    21    41   1
@<TRIPOS>SUBSTRUCTURE
     1  DYH      1

