@<TRIPOS>MOLECULE
3fv1_ligand_003
    41    42
SMALL
GAST_HUCK
****
This file was generated by PARSER (from files_GN.cpp)

@<TRIPOS>ATOM
      1 CAA       -10.5388   18.4876   20.0944 C.3         1 DYH      -0.0444
      2 NH        -11.5193   17.3885   20.1428 N.4         1 DYH       0.2308
      3 CAH       -11.5222   16.3767   21.2312 C.3         1 DYH       0.0349
      4 CAG       -11.7564   16.9763   22.6496 C.3         1 DYH       0.1232
      5 OAC       -10.7460   17.9184   22.9901 O.3         1 DYH      -0.3838
      6 CAP       -11.7609   15.8526   23.7133 C.3         1 DYH       0.0794
      7 OAQ       -10.5265   15.1216   23.6441 O.3         1 DYH      -0.3710
      8 CAR       -10.3356   14.4167   22.3967 C.3         1 DYH       0.0923
      9 CAS        -8.9101   13.8636   22.3339 C.3         1 DYH       0.0103
     10 CAI       -10.3477   15.3523   21.1701 C.3         1 DYH       0.1293
     11 OAJ        -9.0430   15.9391   21.1584 O.3         1 DYH      -0.3574
     12 CAK        -8.0639   15.0226   21.7026 C.3         1 DYH       0.1231
     13 CAE        -7.3569   15.8575   22.7170 C.2         1 DYH       0.0769
     14 OAB        -6.7822   17.0264   22.3413 O.co2       1 DYH      -0.5451
     15 OAF        -7.2133   15.4929   24.0089 O.co2       1 DYH      -0.5451
     16 CB         -7.0290   14.5018   20.6210 C.3         1 DYH       0.0363
     17 CA         -7.2483   14.9992   19.1592 C.3         1 DYH       0.0305
     18 C          -6.6982   16.3512   18.9371 C.2         1 DYH       0.0844
     19 OXT        -5.3715   16.5702   19.0631 O.co2       1 DYH      -0.5643
     20 O          -7.4756   17.3564   18.4731 O.co2       1 DYH      -0.5643
     21 N          -6.6301   14.0841   18.1873 N.4         1 DYH       0.2327
     22 H1        -10.7135   19.0141   19.1610 H           1 DYH       0.0777
     23 H2         -9.5134   18.1217   20.0977 H           1 DYH       0.0777
     24 H3        -10.6871   19.2048   20.9027 H           1 DYH       0.0777
     25 H4        -11.4453   16.8901   19.2528 H           1 DYH       0.2015
     26 H5        -12.4286   17.8475   20.1758 H           1 DYH       0.2015
     27 H6        -12.4173   15.7849   21.0223 H           1 DYH       0.0904
     28 H7        -12.7196   17.4943   22.6677 H           1 DYH       0.0674
     29 H8         -9.9003   17.4458   22.8477 H           1 DYH       0.2101
     30 H9        -12.6148   15.1879   23.5688 H           1 DYH       0.0588
     31 H10       -11.8495   16.2925   24.7080 H           1 DYH       0.0588
     32 H11       -11.0708   13.6123   22.2985 H           1 DYH       0.0624
     33 H12        -8.9293   12.9716   21.6979 H           1 DYH       0.0311
     34 H13        -8.5619   13.5510   23.3217 H           1 DYH       0.0311
     35 H14       -10.4637   14.7554   20.2567 H           1 DYH       0.0679
     36 H15        -7.0446   13.4093   20.5912 H           1 DYH       0.0359
     37 H16        -5.9988   14.7412   20.9111 H           1 DYH       0.0359
     38 H17        -8.3154   14.9998   18.9319 H           1 DYH       0.1024
     39 H18        -6.8522   14.4076   17.2430 H           1 DYH       0.2010
     40 H19        -7.0087   13.1426   18.3127 H           1 DYH       0.2010
     41 H20        -5.6171   14.0620   18.3215 H           1 DYH       0.2010
@<TRIPOS>BOND
     1     1     2   1
     2     2     3   1
     3     3     4   1
     4     3    10   1
     5     4     5   1
     6     4     6   1
     7     6     7   1
     8     7     8   1
     9     8     9   1
    10     8    10   1
    11     9    12   1
    12    10    11   1
    13    11    12   1
    14    12    13   1
    15    12    16   1
    16    13    14  ar
    17    13    15  ar
    18    16    17   1
    19    17    18   1
    20    17    21   1
    21    18    19  ar
    22    18    20  ar
    23     1    22   1
    24     1    23   1
    25     1    24   1
    26     2    25   1
    27     2    26   1
    28     3    27   1
    29     4    28   1
    30     5    29   1
    31     6    30   1
    32     6    31   1
    33     8    32   1
    34     9    33   1
    35     9    34   1
    36    10    35   1
    37    16    36   1
    38    16    37   1
    39    17    38   1
    40    21    39   1
    41    21    40   1
    42    21    41   1
@<TRIPOS>SUBSTRUCTURE
     1  DYH      1

