@<TRIPOS>MOLECULE
3g0w_ligand_013
    37    39
SMALL
GAST_HUCK
****
This file was generated by PARSER (from files_GN.cpp)

@<TRIPOS>ATOM
      1 C1         55.4668    0.9984    5.0566 C.3         1 LGB       0.0449
      2 N2         54.5232    1.3140    4.0421 N.pl3       1 LGB      -0.2354
      3 C3         53.8187    0.2348    3.4883 C.3         1 LGB       0.1199
      4 C4         53.8732   -0.8010    4.6311 C.3         1 LGB       0.0850
      5 C5         55.2685   -0.5222    5.2333 C.3         1 LGB      -0.0025
      6 C6         53.9227    2.4856    3.7826 C.2         1 LGB       0.2667
      7 O7         52.8404    2.3225    2.9832 O.3         1 LGB      -0.2358
      8 C8         52.4922    0.9330    3.0926 C.3         1 LGB       0.2188
      9 N9         54.3923    3.6703    4.2332 N.2         1 LGB      -0.2946
     10 C10        54.0708    4.9954    4.1374 C.ar        1 LGB       0.0001
     11 C11        52.8129    5.5736    3.7917 C.ar        1 LGB      -0.0192
     12 C12        52.7439    6.9692    3.5114 C.ar        1 LGB       0.0660
     13 C13        53.8672    7.8044    3.7358 C.ar        1 LGB       0.0905
     14 C14        55.0661    7.2339    4.2047 C.ar        1 LGB      -0.0438
     15 C15        55.1704    5.8466    4.3703 C.ar        1 LGB      -0.0559
     16 C16        51.5770    4.7479    3.7709 C.3         1 LGB      -0.0320
     17 CL17       51.3398    7.6382    2.8109 Cl          1 LGB      -0.0696
     18 O18        53.7366   -2.1438    4.1686 O.3         1 LGB      -0.3892
     19 C19        53.8505    9.0880    3.4753 C.1         1 LGB       0.0860
     20 N20        53.8316   10.2043    3.2101 N.1         1 LGB      -0.3388
     21 C21        51.8517    0.4711    1.7600 C.3         1 LGB       0.4246
     22 F22        51.4403   -0.8340    1.8417 F           1 LGB      -0.1673
     23 F23        52.7206    0.5971    0.7033 F           1 LGB      -0.1673
     24 F24        50.7540    1.2438    1.4764 F           1 LGB      -0.1673
     25 H1         55.2325    1.5283    5.9849 H           1 LGB       0.0541
     26 H2         56.4827    1.2435    4.7366 H           1 LGB       0.0541
     27 H3         54.3645   -0.1293    2.6104 H           1 LGB       0.0637
     28 H4         53.0962   -0.5959    5.3743 H           1 LGB       0.0619
     29 H5         55.3253   -0.8234    6.2807 H           1 LGB       0.0312
     30 H6         56.0341   -1.0588    4.6635 H           1 LGB       0.0312
     31 H7         51.7555    0.8240    3.8974 H           1 LGB       0.0794
     32 H8         55.8907    7.8143    4.3862 H           1 LGB       0.0636
     33 H9         56.0765    5.4553    4.6435 H           1 LGB       0.0538
     34 H10        51.4507    4.3196    2.7789 H           1 LGB       0.0378
     35 H11        50.6850    5.3237    4.0220 H           1 LGB       0.0378
     36 H12        51.6280    3.9532    4.5135 H           1 LGB       0.0378
     37 H13        53.5478   -2.6823    4.9696 H           1 LGB       0.2099
@<TRIPOS>BOND
     1     1     2   1
     2     1     5   1
     3     2     3   1
     4     2     6   1
     5     3     4   1
     6     3     8   1
     7     4     5   1
     8     4    18   1
     9     6     7   1
    10     6     9   2
    11     7     8   1
    12     8    21   1
    13     9    10   1
    14    10    11  ar
    15    10    15  ar
    16    11    12  ar
    17    11    16   1
    18    12    13  ar
    19    12    17   1
    20    13    14  ar
    21    13    19   1
    22    14    15  ar
    23    19    20   3
    24    21    22   1
    25    21    23   1
    26    21    24   1
    27     1    25   1
    28     1    26   1
    29     3    27   1
    30     4    28   1
    31     5    29   1
    32     5    30   1
    33     8    31   1
    34    14    32   1
    35    15    33   1
    36    16    34   1
    37    16    35   1
    38    16    36   1
    39    18    37   1
@<TRIPOS>SUBSTRUCTURE
     1  LGB      1

