@<TRIPOS>MOLECULE
3g0w_ligand_024
    37    39
SMALL
GAST_HUCK
****
This file was generated by PARSER (from files_GN.cpp)

@<TRIPOS>ATOM
      1 C1         53.4308    1.0322    2.3920 C.3         1 LGB       0.0449
      2 N2         53.4214    2.0780    3.3695 N.pl3       1 LGB      -0.2354
      3 C3         52.2026    2.7578    3.5110 C.3         1 LGB       0.1199
      4 C4         51.1526    1.8432    2.8505 C.3         1 LGB       0.0850
      5 C5         51.9908    1.0312    1.8343 C.3         1 LGB      -0.0025
      6 C6         54.1800    2.2549    4.4737 C.2         1 LGB       0.2667
      7 O7         53.5356    3.0112    5.4109 O.3         1 LGB      -0.2358
      8 C8         52.1485    2.9286    5.0435 C.3         1 LGB       0.2188
      9 N9         55.3818    1.7556    4.8358 N.2         1 LGB      -0.2946
     10 C10        56.3703    1.0138    4.2696 C.ar        1 LGB       0.0001
     11 C11        57.2069    0.1984    5.0951 C.ar        1 LGB      -0.0192
     12 C12        58.1613   -0.6547    4.4700 C.ar        1 LGB       0.0660
     13 C13        58.2810   -0.6844    3.0542 C.ar        1 LGB       0.0905
     14 C14        57.5255    0.2192    2.2750 C.ar        1 LGB      -0.0438
     15 C15        56.6059    1.0818    2.8862 C.ar        1 LGB      -0.0559
     16 C16        57.1066    0.2429    6.5887 C.3         1 LGB      -0.0320
     17 CL17       59.2038   -1.6190    5.4141 Cl          1 LGB      -0.0696
     18 O18        50.1346    2.6367    2.2296 O.3         1 LGB      -0.3892
     19 C19        59.1248   -1.4658    2.4335 C.1         1 LGB       0.0860
     20 N20        59.8635   -2.1463    1.8728 N.1         1 LGB      -0.3388
     21 C21        51.3432    4.1504    5.5472 C.3         1 LGB       0.4246
     22 F22        50.0563    4.1238    5.0715 F           1 LGB      -0.1673
     23 F23        51.9262    5.3293    5.1845 F           1 LGB      -0.1673
     24 F24        51.2797    4.1185    6.9173 F           1 LGB      -0.1673
     25 H1         53.6838    0.0744    2.8523 H           1 LGB       0.0541
     26 H2         54.1278    1.2509    1.5814 H           1 LGB       0.0541
     27 H3         52.2765    3.7207    2.9840 H           1 LGB       0.0637
     28 H4         50.6878    1.1672    3.5764 H           1 LGB       0.0619
     29 H5         51.6022    0.0159    1.7251 H           1 LGB       0.0312
     30 H6         51.9748    1.5178    0.8565 H           1 LGB       0.0312
     31 H7         51.7275    2.0247    5.5005 H           1 LGB       0.0794
     32 H8         57.6557    0.2721    1.2554 H           1 LGB       0.0636
     33 H9         56.1244    1.7960    2.3290 H           1 LGB       0.0538
     34 H10        56.3663    0.9565    6.9554 H           1 LGB       0.0378
     35 H11        58.0745    0.5350    7.0014 H           1 LGB       0.0378
     36 H12        56.8473   -0.7407    6.9910 H           1 LGB       0.0378
     37 H13        49.8503    2.1315    1.4417 H           1 LGB       0.2099
@<TRIPOS>BOND
     1     1     2   1
     2     1     5   1
     3     2     3   1
     4     2     6   1
     5     3     4   1
     6     3     8   1
     7     4     5   1
     8     4    18   1
     9     6     7   1
    10     6     9   2
    11     7     8   1
    12     8    21   1
    13     9    10   1
    14    10    11  ar
    15    10    15  ar
    16    11    12  ar
    17    11    16   1
    18    12    13  ar
    19    12    17   1
    20    13    14  ar
    21    13    19   1
    22    14    15  ar
    23    19    20   3
    24    21    22   1
    25    21    23   1
    26    21    24   1
    27     1    25   1
    28     1    26   1
    29     3    27   1
    30     4    28   1
    31     5    29   1
    32     5    30   1
    33     8    31   1
    34    14    32   1
    35    15    33   1
    36    16    34   1
    37    16    35   1
    38    16    36   1
    39    18    37   1
@<TRIPOS>SUBSTRUCTURE
     1  LGB      1

