@<TRIPOS>MOLECULE
3g0w_ligand_030
    37    39
SMALL
GAST_HUCK
****
This file was generated by PARSER (from files_GN.cpp)

@<TRIPOS>ATOM
      1 C1         53.8787    0.6256    2.8549 C.3         1 LGB       0.0449
      2 N2         53.9677    2.0403    2.9702 N.pl3       1 LGB      -0.2354
      3 C3         52.8016    2.7490    2.6491 C.3         1 LGB       0.1199
      4 C4         51.7320    1.6578    2.3926 C.3         1 LGB       0.0850
      5 C5         52.3657    0.3736    2.9568 C.3         1 LGB      -0.0025
      6 C6         54.6788    2.7228    3.8823 C.2         1 LGB       0.2667
      7 O7         54.0605    3.8609    4.2964 O.3         1 LGB      -0.2358
      8 C8         52.6903    3.6569    3.9013 C.3         1 LGB       0.2188
      9 N9         55.8350    2.3276    4.4356 N.2         1 LGB      -0.2946
     10 C10        56.9961    1.9075    4.9745 C.ar        1 LGB       0.0001
     11 C11        57.6849    0.7381    4.5530 C.ar        1 LGB      -0.0192
     12 C12        58.8042    0.2945    5.3121 C.ar        1 LGB       0.0660
     13 C13        59.2972    1.0869    6.3818 C.ar        1 LGB       0.0905
     14 C14        58.6363    2.2801    6.7332 C.ar        1 LGB      -0.0438
     15 C15        57.4796    2.6727    6.0505 C.ar        1 LGB      -0.0559
     16 C16        57.2548   -0.0139    3.3408 C.3         1 LGB      -0.0320
     17 CL17       59.5383   -1.2035    4.9566 Cl          1 LGB      -0.0696
     18 O18        51.5097    1.4967    0.9905 O.3         1 LGB      -0.3892
     19 C19        60.3679    0.7618    7.0524 C.1         1 LGB       0.0860
     20 N20        61.3162    0.4756    7.6327 N.1         1 LGB      -0.3388
     21 C21        51.9722    5.0145    3.6884 C.3         1 LGB       0.4246
     22 F22        50.7068    4.8311    3.1819 F           1 LGB      -0.1673
     23 F23        52.6777    5.8289    2.8330 F           1 LGB      -0.1673
     24 F24        51.8513    5.6720    4.8904 F           1 LGB      -0.1673
     25 H1         54.3958    0.0835    3.6492 H           1 LGB       0.0541
     26 H2         54.2634    0.3204    1.8776 H           1 LGB       0.0541
     27 H3         52.9959    3.3448    1.7521 H           1 LGB       0.0637
     28 H4         50.7818    1.8912    2.8814 H           1 LGB       0.0619
     29 H5         52.0774    0.2556    4.0066 H           1 LGB       0.0312
     30 H6         52.0727   -0.5203    2.3994 H           1 LGB       0.0312
     31 H7         52.1724    3.1127    4.7018 H           1 LGB       0.0794
     32 H8         58.9702    2.8675    7.5019 H           1 LGB       0.0636
     33 H9         56.9881    3.5199    6.3506 H           1 LGB       0.0538
     34 H10        56.6132    0.5790    2.6937 H           1 LGB       0.0378
     35 H11        56.7321   -0.9228    3.6453 H           1 LGB       0.0378
     36 H12        58.1189   -0.2872    2.7328 H           1 LGB       0.0378
     37 H13        50.8740    0.7556    0.9100 H           1 LGB       0.2099
@<TRIPOS>BOND
     1     1     2   1
     2     1     5   1
     3     2     3   1
     4     2     6   1
     5     3     4   1
     6     3     8   1
     7     4     5   1
     8     4    18   1
     9     6     7   1
    10     6     9   2
    11     7     8   1
    12     8    21   1
    13     9    10   1
    14    10    11  ar
    15    10    15  ar
    16    11    12  ar
    17    11    16   1
    18    12    13  ar
    19    12    17   1
    20    13    14  ar
    21    13    19   1
    22    14    15  ar
    23    19    20   3
    24    21    22   1
    25    21    23   1
    26    21    24   1
    27     1    25   1
    28     1    26   1
    29     3    27   1
    30     4    28   1
    31     5    29   1
    32     5    30   1
    33     8    31   1
    34    14    32   1
    35    15    33   1
    36    16    34   1
    37    16    35   1
    38    16    36   1
    39    18    37   1
@<TRIPOS>SUBSTRUCTURE
     1  LGB      1

