@<TRIPOS>MOLECULE
3g0w_ligand_031
    37    39
SMALL
GAST_HUCK
****
This file was generated by PARSER (from files_GN.cpp)

@<TRIPOS>ATOM
      1 C1         55.7458    2.8025    3.6018 C.3         1 LGB       0.0449
      2 N2         54.6657    1.9921    3.1525 N.pl3       1 LGB      -0.2354
      3 C3         53.4772    2.6751    2.8819 C.3         1 LGB       0.1199
      4 C4         53.9254    4.1290    2.6110 C.3         1 LGB       0.0850
      5 C5         55.2845    4.2521    3.3374 C.3         1 LGB      -0.0025
      6 C6         54.7304    0.8272    2.4778 C.2         1 LGB       0.2667
      7 O7         53.7031    0.6547    1.6114 O.3         1 LGB      -0.2358
      8 C8         52.8838    1.8283    1.7228 C.3         1 LGB       0.2188
      9 N9         55.6276   -0.1751    2.6132 N.2         1 LGB      -0.2946
     10 C10        56.5749   -0.3618    3.5701 C.ar        1 LGB       0.0001
     11 C11        56.3433   -0.2330    4.9693 C.ar        1 LGB      -0.0192
     12 C12        57.4595   -0.2147    5.8564 C.ar        1 LGB       0.0660
     13 C13        58.7631   -0.4546    5.3554 C.ar        1 LGB       0.0905
     14 C14        58.9336   -0.8042    4.0022 C.ar        1 LGB      -0.0438
     15 C15        57.8517   -0.7314    3.1122 C.ar        1 LGB      -0.0559
     16 C16        54.9607   -0.1888    5.5195 C.3         1 LGB      -0.0320
     17 CL17       57.2415    0.1010    7.5206 Cl          1 LGB      -0.0696
     18 O18        52.9629    5.0709    3.0846 O.3         1 LGB      -0.3892
     19 C19        59.8274   -0.2934    6.0913 C.1         1 LGB       0.0860
     20 N20        60.7571   -0.1019    6.7335 N.1         1 LGB      -0.3388
     21 C21        51.4058    1.3974    1.9196 C.3         1 LGB       0.4246
     22 F22        50.5892    2.4862    2.1026 F           1 LGB      -0.1673
     23 F23        51.2642    0.5744    3.0123 F           1 LGB      -0.1673
     24 F24        50.9687    0.7141    0.8102 F           1 LGB      -0.1673
     25 H1         56.6741    2.5872    3.0618 H           1 LGB       0.0541
     26 H2         55.9069    2.6488    4.6690 H           1 LGB       0.0541
     27 H3         52.8547    2.6311    3.7826 H           1 LGB       0.0637
     28 H4         54.0686    4.2969    1.5421 H           1 LGB       0.0619
     29 H5         56.0109    4.7857    2.7159 H           1 LGB       0.0312
     30 H6         55.1723    4.7910    4.2850 H           1 LGB       0.0312
     31 H7         52.9674    2.3700    0.7770 H           1 LGB       0.0794
     32 H8         59.8552   -1.0623    3.6356 H           1 LGB       0.0636
     33 H9         58.0153   -0.9017    2.1160 H           1 LGB       0.0538
     34 H10        54.1857   -0.3532    4.7738 H           1 LGB       0.0378
     35 H11        54.7853    0.7778    5.9926 H           1 LGB       0.0378
     36 H12        54.8407   -0.9816    6.2590 H           1 LGB       0.0378
     37 H13        53.2651    5.9392    2.7443 H           1 LGB       0.2099
@<TRIPOS>BOND
     1     1     2   1
     2     1     5   1
     3     2     3   1
     4     2     6   1
     5     3     4   1
     6     3     8   1
     7     4     5   1
     8     4    18   1
     9     6     7   1
    10     6     9   2
    11     7     8   1
    12     8    21   1
    13     9    10   1
    14    10    11  ar
    15    10    15  ar
    16    11    12  ar
    17    11    16   1
    18    12    13  ar
    19    12    17   1
    20    13    14  ar
    21    13    19   1
    22    14    15  ar
    23    19    20   3
    24    21    22   1
    25    21    23   1
    26    21    24   1
    27     1    25   1
    28     1    26   1
    29     3    27   1
    30     4    28   1
    31     5    29   1
    32     5    30   1
    33     8    31   1
    34    14    32   1
    35    15    33   1
    36    16    34   1
    37    16    35   1
    38    16    36   1
    39    18    37   1
@<TRIPOS>SUBSTRUCTURE
     1  LGB      1

