@<TRIPOS>MOLECULE
3g0w_ligand_029
    37    39
SMALL
GAST_HUCK
****
This file was generated by PARSER (from files_GN.cpp)

@<TRIPOS>ATOM
      1 C1         54.3572    4.8116    2.5513 C.3         1 LGB       0.0449
      2 N2         53.9225    5.4064    3.7765 N.pl3       1 LGB      -0.2354
      3 C3         53.6406    6.7748    3.7150 C.3         1 LGB       0.1199
      4 C4         53.4578    7.0423    2.2066 C.3         1 LGB       0.0850
      5 C5         54.4037    6.0021    1.5735 C.3         1 LGB      -0.0025
      6 C6         53.2311    4.8213    4.7747 C.2         1 LGB       0.2667
      7 O7         52.4012    5.6875    5.4206 O.3         1 LGB      -0.2358
      8 C8         52.4071    6.8994    4.6411 C.3         1 LGB       0.2188
      9 N9         53.2735    3.5243    5.1537 N.2         1 LGB      -0.2946
     10 C10        54.1720    2.5364    4.8616 C.ar        1 LGB       0.0001
     11 C11        53.7633    1.2008    4.5825 C.ar        1 LGB      -0.0192
     12 C12        54.7566    0.2120    4.3120 C.ar        1 LGB       0.0660
     13 C13        56.1390    0.5516    4.3346 C.ar        1 LGB       0.0905
     14 C14        56.5246    1.8701    4.6489 C.ar        1 LGB      -0.0438
     15 C15        55.5528    2.8414    4.9280 C.ar        1 LGB      -0.0559
     16 C16        52.3199    0.8373    4.5469 C.3         1 LGB      -0.0320
     17 CL17       54.2988   -1.3954    3.9537 Cl          1 LGB      -0.0696
     18 O18        53.7944    8.3752    1.8358 O.3         1 LGB      -0.3892
     19 C19        57.0892   -0.3183    4.1031 C.1         1 LGB       0.0860
     20 N20        57.9121   -1.0926    3.8966 N.1         1 LGB      -0.3388
     21 C21        52.4086    8.1713    5.5300 C.3         1 LGB       0.4246
     22 F22        52.5445    9.3009    4.7651 F           1 LGB      -0.1673
     23 F23        53.4372    8.1646    6.4335 F           1 LGB      -0.1673
     24 F24        51.2320    8.2775    6.2257 F           1 LGB      -0.1673
     25 H1         53.6275    4.0685    2.2021 H           1 LGB       0.0541
     26 H2         55.3429    4.3352    2.6536 H           1 LGB       0.0541
     27 H3         54.5061    7.3179    4.1075 H           1 LGB       0.0637
     28 H4         52.4290    6.8426    1.8919 H           1 LGB       0.0619
     29 H5         54.0900    5.7210    0.5671 H           1 LGB       0.0312
     30 H6         55.4260    6.3802    1.5253 H           1 LGB       0.0312
     31 H7         51.4882    6.9020    4.0407 H           1 LGB       0.0794
     32 H8         57.5154    2.1425    4.6789 H           1 LGB       0.0636
     33 H9         55.8660    3.7916    5.1787 H           1 LGB       0.0538
     34 H10        51.6562    1.6649    4.7820 H           1 LGB       0.0378
     35 H11        52.1296    0.0487    5.2712 H           1 LGB       0.0378
     36 H12        52.0561    0.4744    3.5556 H           1 LGB       0.0378
     37 H13        53.1832    8.9558    2.3504 H           1 LGB       0.2099
@<TRIPOS>BOND
     1     1     2   1
     2     1     5   1
     3     2     3   1
     4     2     6   1
     5     3     4   1
     6     3     8   1
     7     4     5   1
     8     4    18   1
     9     6     7   1
    10     6     9   2
    11     7     8   1
    12     8    21   1
    13     9    10   1
    14    10    11  ar
    15    10    15  ar
    16    11    12  ar
    17    11    16   1
    18    12    13  ar
    19    12    17   1
    20    13    14  ar
    21    13    19   1
    22    14    15  ar
    23    19    20   3
    24    21    22   1
    25    21    23   1
    26    21    24   1
    27     1    25   1
    28     1    26   1
    29     3    27   1
    30     4    28   1
    31     5    29   1
    32     5    30   1
    33     8    31   1
    34    14    32   1
    35    15    33   1
    36    16    34   1
    37    16    35   1
    38    16    36   1
    39    18    37   1
@<TRIPOS>SUBSTRUCTURE
     1  LGB      1

