@<TRIPOS>MOLECULE
3g0w_ligand_061
    37    39
SMALL
GAST_HUCK
****
This file was generated by PARSER (from files_GN.cpp)

@<TRIPOS>ATOM
      1 C1         57.4653    3.0642    5.5780 C.3         1 LGB       0.0449
      2 N2         57.5900    1.8016    4.9453 N.pl3       1 LGB      -0.2354
      3 C3         58.6924    1.0282    5.3241 C.3         1 LGB       0.1199
      4 C4         59.0120    1.5840    6.7268 C.3         1 LGB       0.0850
      5 C5         58.6736    3.0816    6.5425 C.3         1 LGB      -0.0025
      6 C6         56.6397    1.0408    4.3837 C.2         1 LGB       0.2667
      7 O7         57.0377   -0.2488    4.2252 O.3         1 LGB      -0.2358
      8 C8         58.1154   -0.3993    5.1651 C.3         1 LGB       0.2188
      9 N9         55.4260    1.5226    4.0405 N.2         1 LGB      -0.2946
     10 C10        54.3153    0.9122    3.5493 C.ar        1 LGB       0.0001
     11 C11        53.3701    1.6670    2.7969 C.ar        1 LGB      -0.0192
     12 C12        52.2300    1.0058    2.2510 C.ar        1 LGB       0.0660
     13 C13        52.0410   -0.3847    2.4612 C.ar        1 LGB       0.0905
     14 C14        52.9573   -1.0965    3.2597 C.ar        1 LGB      -0.0438
     15 C15        54.0713   -0.4546    3.8034 C.ar        1 LGB      -0.0559
     16 C16        53.5651    3.1278    2.5506 C.3         1 LGB      -0.0320
     17 CL17       51.0758    1.8696    1.3430 Cl          1 LGB      -0.0696
     18 O18        60.3586    1.3085    7.1073 O.3         1 LGB      -0.3892
     19 C19        51.0413   -1.0501    1.9336 C.1         1 LGB       0.0860
     20 N20        50.1770   -1.6424    1.4684 N.1         1 LGB      -0.3388
     21 C21        59.1246   -1.4673    4.6804 C.3         1 LGB       0.4246
     22 F22        60.1687   -1.5547    5.5671 F           1 LGB      -0.1673
     23 F23        59.6201   -1.1786    3.4320 F           1 LGB      -0.1673
     24 F24        58.5212   -2.6994    4.6079 F           1 LGB      -0.1673
     25 H1         56.5280    3.1235    6.1393 H           1 LGB       0.0541
     26 H2         57.5038    3.8712    4.8419 H           1 LGB       0.0541
     27 H3         59.5117    1.2295    4.6266 H           1 LGB       0.0637
     28 H4         58.3386    1.1516    7.4722 H           1 LGB       0.0619
     29 H5         58.4238    3.5680    7.4843 H           1 LGB       0.0312
     30 H6         59.5108    3.6154    6.0802 H           1 LGB       0.0312
     31 H7         57.6900   -0.7342    6.1172 H           1 LGB       0.0794
     32 H8         52.8304   -2.0936    3.4629 H           1 LGB       0.0636
     33 H9         54.6936   -0.9991    4.4018 H           1 LGB       0.0538
     34 H10        54.4896    3.5253    2.9665 H           1 LGB       0.0378
     35 H11        52.7395    3.6857    2.9942 H           1 LGB       0.0378
     36 H12        53.5855    3.3180    1.4796 H           1 LGB       0.0378
     37 H13        60.4092    1.5021    8.0708 H           1 LGB       0.2099
@<TRIPOS>BOND
     1     1     2   1
     2     1     5   1
     3     2     3   1
     4     2     6   1
     5     3     4   1
     6     3     8   1
     7     4     5   1
     8     4    18   1
     9     6     7   1
    10     6     9   2
    11     7     8   1
    12     8    21   1
    13     9    10   1
    14    10    11  ar
    15    10    15  ar
    16    11    12  ar
    17    11    16   1
    18    12    13  ar
    19    12    17   1
    20    13    14  ar
    21    13    19   1
    22    14    15  ar
    23    19    20   3
    24    21    22   1
    25    21    23   1
    26    21    24   1
    27     1    25   1
    28     1    26   1
    29     3    27   1
    30     4    28   1
    31     5    29   1
    32     5    30   1
    33     8    31   1
    34    14    32   1
    35    15    33   1
    36    16    34   1
    37    16    35   1
    38    16    36   1
    39    18    37   1
@<TRIPOS>SUBSTRUCTURE
     1  LGB      1

