@<TRIPOS>MOLECULE
3g0w_ligand_052
    37    39
SMALL
GAST_HUCK
****
This file was generated by PARSER (from files_GN.cpp)

@<TRIPOS>ATOM
      1 C1         51.8023    4.4032    4.4378 C.3         1 LGB       0.0449
      2 N2         52.6172    5.3073    3.6838 N.pl3       1 LGB      -0.2354
      3 C3         52.3431    6.6677    3.8852 C.3         1 LGB       0.1199
      4 C4         51.4339    6.7130    5.1328 C.3         1 LGB       0.0850
      5 C5         50.7790    5.3180    5.1350 C.3         1 LGB      -0.0025
      6 C6         53.8836    5.1466    3.2262 C.2         1 LGB       0.2667
      7 O7         54.5653    6.3288    3.1753 O.3         1 LGB      -0.2358
      8 C8         53.7803    7.2298    3.9858 C.3         1 LGB       0.2188
      9 N9         54.5136    4.0004    2.8540 N.2         1 LGB      -0.2946
     10 C10        53.9966    2.7620    2.5951 C.ar        1 LGB       0.0001
     11 C11        54.6626    1.5487    2.9221 C.ar        1 LGB      -0.0192
     12 C12        54.0052    0.3032    2.6765 C.ar        1 LGB       0.0660
     13 C13        52.7165    0.2799    2.0824 C.ar        1 LGB       0.0905
     14 C14        52.1160    1.4838    1.6830 C.ar        1 LGB      -0.0438
     15 C15        52.7734    2.6956    1.8991 C.ar        1 LGB      -0.0559
     16 C16        56.0250    1.5819    3.5255 C.3         1 LGB      -0.0320
     17 CL17       54.7521   -1.1631    3.1182 Cl          1 LGB      -0.0696
     18 O18        50.4738    7.7678    5.0508 O.3         1 LGB      -0.3892
     19 C19        52.0309   -0.8014    1.8440 C.1         1 LGB       0.0860
     20 N20        51.3771   -1.7179    1.6135 N.1         1 LGB      -0.3388
     21 C21        53.8889    8.7104    3.5468 C.3         1 LGB       0.4246
     22 F22        53.0700    9.5047    4.3052 F           1 LGB      -0.1673
     23 F23        53.5424    8.8597    2.2288 F           1 LGB      -0.1673
     24 F24        55.1731    9.1523    3.7226 F           1 LGB      -0.1673
     25 H1         52.4237    3.8831    5.1881 H           1 LGB       0.0541
     26 H2         51.2796    3.6704    3.8070 H           1 LGB       0.0541
     27 H3         51.8067    7.0423    3.0038 H           1 LGB       0.0637
     28 H4         52.0319    6.8340    6.0423 H           1 LGB       0.0619
     29 H5         50.5753    4.9600    6.1424 H           1 LGB       0.0312
     30 H6         49.8456    5.3362    4.5668 H           1 LGB       0.0312
     31 H7         54.1463    7.1474    5.0169 H           1 LGB       0.0794
     32 H8         51.1893    1.4951    1.2349 H           1 LGB       0.0636
     33 H9         52.3083    3.5590    1.5968 H           1 LGB       0.0538
     34 H10        56.4354    2.5913    3.6175 H           1 LGB       0.0378
     35 H11        56.7109    1.0048    2.8987 H           1 LGB       0.0378
     36 H12        55.9898    1.1379    4.5246 H           1 LGB       0.0378
     37 H13        50.6561    8.3114    5.8466 H           1 LGB       0.2099
@<TRIPOS>BOND
     1     1     2   1
     2     1     5   1
     3     2     3   1
     4     2     6   1
     5     3     4   1
     6     3     8   1
     7     4     5   1
     8     4    18   1
     9     6     7   1
    10     6     9   2
    11     7     8   1
    12     8    21   1
    13     9    10   1
    14    10    11  ar
    15    10    15  ar
    16    11    12  ar
    17    11    16   1
    18    12    13  ar
    19    12    17   1
    20    13    14  ar
    21    13    19   1
    22    14    15  ar
    23    19    20   3
    24    21    22   1
    25    21    23   1
    26    21    24   1
    27     1    25   1
    28     1    26   1
    29     3    27   1
    30     4    28   1
    31     5    29   1
    32     5    30   1
    33     8    31   1
    34    14    32   1
    35    15    33   1
    36    16    34   1
    37    16    35   1
    38    16    36   1
    39    18    37   1
@<TRIPOS>SUBSTRUCTURE
     1  LGB      1

