@<TRIPOS>MOLECULE
3g0w_ligand_019
    37    39
SMALL
GAST_HUCK
****
This file was generated by PARSER (from files_GN.cpp)

@<TRIPOS>ATOM
      1 C1         52.9942    1.7035    4.5354 C.3         1 LGB       0.0449
      2 N2         53.7438    2.8018    4.0310 N.pl3       1 LGB      -0.2354
      3 C3         52.9693    3.8078    3.4326 C.3         1 LGB       0.1199
      4 C4         51.5579    3.5963    4.0218 C.3         1 LGB       0.0850
      5 C5         51.5247    2.0715    4.2434 C.3         1 LGB      -0.0025
      6 C6         54.9912    3.2491    4.2928 C.2         1 LGB       0.2667
      7 O7         55.1394    4.5422    3.8832 O.3         1 LGB      -0.2358
      8 C8         53.7938    5.0524    3.8294 C.3         1 LGB       0.2188
      9 N9         56.0397    2.7222    4.9655 N.2         1 LGB      -0.2946
     10 C10        56.6362    1.7297    5.6865 C.ar        1 LGB       0.0001
     11 C11        57.9439    1.9297    6.2177 C.ar        1 LGB      -0.0192
     12 C12        58.4480    1.0183    7.1927 C.ar        1 LGB       0.0660
     13 C13        57.6523   -0.0747    7.6238 C.ar        1 LGB       0.0905
     14 C14        56.4285   -0.3320    6.9823 C.ar        1 LGB      -0.0438
     15 C15        55.9371    0.5535    6.0146 C.ar        1 LGB      -0.0559
     16 C16        58.7836    3.0858    5.7898 C.3         1 LGB      -0.0320
     17 CL17       59.9972    1.2340    7.8703 Cl          1 LGB      -0.0696
     18 O18        50.5267    4.0510    3.1502 O.3         1 LGB      -0.3892
     19 C19        57.9693   -0.8320    8.6382 C.1         1 LGB       0.0860
     20 N20        58.2222   -1.4823    9.5471 N.1         1 LGB      -0.3388
     21 C21        53.6813    6.2651    2.8733 C.3         1 LGB       0.4246
     22 F22        52.3846    6.7158    2.8021 F           1 LGB      -0.1673
     23 F23        54.1122    5.9507    1.6062 F           1 LGB      -0.1673
     24 F24        54.4552    7.2942    3.3504 F           1 LGB      -0.1673
     25 H1         53.1305    1.6291    5.6149 H           1 LGB       0.0541
     26 H2         53.2735    0.7682    4.0431 H           1 LGB       0.0541
     27 H3         52.9723    3.6468    2.3472 H           1 LGB       0.0637
     28 H4         51.4589    4.1061    4.9852 H           1 LGB       0.0619
     29 H5         50.8732    1.8163    5.0866 H           1 LGB       0.0312
     30 H6         51.1669    1.5528    3.3459 H           1 LGB       0.0312
     31 H7         53.5088    5.3828    4.8378 H           1 LGB       0.0794
     32 H8         55.8505   -1.1353    7.2504 H           1 LGB       0.0636
     33 H9         55.0362    0.3511    5.5972 H           1 LGB       0.0538
     34 H10        58.3326    3.6805    4.9979 H           1 LGB       0.0378
     35 H11        59.7426    2.7276    5.4104 H           1 LGB       0.0378
     36 H12        58.9633    3.7402    6.6424 H           1 LGB       0.0378
     37 H13        49.7141    3.5744    3.4316 H           1 LGB       0.2099
@<TRIPOS>BOND
     1     1     2   1
     2     1     5   1
     3     2     3   1
     4     2     6   1
     5     3     4   1
     6     3     8   1
     7     4     5   1
     8     4    18   1
     9     6     7   1
    10     6     9   2
    11     7     8   1
    12     8    21   1
    13     9    10   1
    14    10    11  ar
    15    10    15  ar
    16    11    12  ar
    17    11    16   1
    18    12    13  ar
    19    12    17   1
    20    13    14  ar
    21    13    19   1
    22    14    15  ar
    23    19    20   3
    24    21    22   1
    25    21    23   1
    26    21    24   1
    27     1    25   1
    28     1    26   1
    29     3    27   1
    30     4    28   1
    31     5    29   1
    32     5    30   1
    33     8    31   1
    34    14    32   1
    35    15    33   1
    36    16    34   1
    37    16    35   1
    38    16    36   1
    39    18    37   1
@<TRIPOS>SUBSTRUCTURE
     1  LGB      1

