@<TRIPOS>MOLECULE
3g0w_ligand_046
    37    39
SMALL
GAST_HUCK
****
This file was generated by PARSER (from files_GN.cpp)

@<TRIPOS>ATOM
      1 C1         54.1308    3.4301    4.8858 C.3         1 LGB       0.0449
      2 N2         54.5773    3.6360    3.5515 N.pl3       1 LGB      -0.2354
      3 C3         53.8172    4.5478    2.8039 C.3         1 LGB       0.1199
      4 C4         52.8687    5.2175    3.8209 C.3         1 LGB       0.0850
      5 C5         52.7553    4.1502    4.9319 C.3         1 LGB      -0.0025
      6 C6         55.8226    3.5368    3.0541 C.2         1 LGB       0.2667
      7 O7         56.0073    4.3821    2.0163 O.3         1 LGB      -0.2358
      8 C8         54.9638    5.3572    2.1686 C.3         1 LGB       0.2188
      9 N9         56.8511    2.7769    3.4828 N.2         1 LGB      -0.2946
     10 C10        56.8531    1.7847    4.4073 C.ar        1 LGB       0.0001
     11 C11        55.9686    0.6639    4.3760 C.ar        1 LGB      -0.0192
     12 C12        55.8743   -0.1592    5.5319 C.ar        1 LGB       0.0660
     13 C13        56.7698    0.0206    6.6171 C.ar        1 LGB       0.0905
     14 C14        57.7432    1.0380    6.5571 C.ar        1 LGB      -0.0438
     15 C15        57.7723    1.9250    5.4688 C.ar        1 LGB      -0.0559
     16 C16        55.1433    0.3796    3.1642 C.3         1 LGB      -0.0320
     17 CL17       54.6423   -1.3381    5.6086 Cl          1 LGB      -0.0696
     18 O18        51.5965    5.5236    3.2404 O.3         1 LGB      -0.3892
     19 C19        56.7126   -0.7223    7.6893 C.1         1 LGB       0.0860
     20 N20        56.6640   -1.3706    8.6365 N.1         1 LGB      -0.3388
     21 C21        54.6302    6.0487    0.8235 C.3         1 LGB       0.4246
     22 F22        54.1325    5.1740   -0.1193 F           1 LGB      -0.1673
     23 F23        55.7644    6.6060    0.2752 F           1 LGB      -0.1673
     24 F24        53.7036    7.0511    1.0232 F           1 LGB      -0.1673
     25 H1         54.8159    3.9035    5.5998 H           1 LGB       0.0541
     26 H2         53.9954    2.3750    5.1563 H           1 LGB       0.0541
     27 H3         53.2585    3.9750    2.0632 H           1 LGB       0.0637
     28 H4         53.3098    6.1337    4.2255 H           1 LGB       0.0619
     29 H5         52.5400    4.6018    5.9112 H           1 LGB       0.0312
     30 H6         51.9565    3.4285    4.6912 H           1 LGB       0.0312
     31 H7         55.3148    6.1329    2.8617 H           1 LGB       0.0794
     32 H8         58.4105    1.1835    7.3218 H           1 LGB       0.0636
     33 H9         58.4545    2.6984    5.4723 H           1 LGB       0.0538
     34 H10        55.4765    0.9657    2.2958 H           1 LGB       0.0378
     35 H11        54.1100    0.6225    3.3499 H           1 LGB       0.0378
     36 H12        55.2299   -0.6762    2.8904 H           1 LGB       0.0378
     37 H13        51.0721    5.9143    3.9854 H           1 LGB       0.2099
@<TRIPOS>BOND
     1     1     2   1
     2     1     5   1
     3     2     3   1
     4     2     6   1
     5     3     4   1
     6     3     8   1
     7     4     5   1
     8     4    18   1
     9     6     7   1
    10     6     9   2
    11     7     8   1
    12     8    21   1
    13     9    10   1
    14    10    11  ar
    15    10    15  ar
    16    11    12  ar
    17    11    16   1
    18    12    13  ar
    19    12    17   1
    20    13    14  ar
    21    13    19   1
    22    14    15  ar
    23    19    20   3
    24    21    22   1
    25    21    23   1
    26    21    24   1
    27     1    25   1
    28     1    26   1
    29     3    27   1
    30     4    28   1
    31     5    29   1
    32     5    30   1
    33     8    31   1
    34    14    32   1
    35    15    33   1
    36    16    34   1
    37    16    35   1
    38    16    36   1
    39    18    37   1
@<TRIPOS>SUBSTRUCTURE
     1  LGB      1

