@<TRIPOS>MOLECULE
3g0w_ligand_043
    37    39
SMALL
GAST_HUCK
****
This file was generated by PARSER (from files_GN.cpp)

@<TRIPOS>ATOM
      1 C1         54.3062    0.6685    4.7438 C.3         1 LGB       0.0449
      2 N2         54.2648    0.9942    3.3547 N.pl3       1 LGB      -0.2354
      3 C3         53.0268    0.8040    2.7372 C.3         1 LGB       0.1199
      4 C4         52.0587    1.0138    3.9132 C.3         1 LGB       0.0850
      5 C5         52.8330    0.3068    5.0423 C.3         1 LGB      -0.0025
      6 C6         55.0314    1.8415    2.6440 C.2         1 LGB       0.2667
      7 O7         54.4199    2.3067    1.5278 O.3         1 LGB      -0.2358
      8 C8         53.0709    1.8158    1.5694 C.3         1 LGB       0.2188
      9 N9         56.2736    2.2858    2.9194 N.2         1 LGB      -0.2946
     10 C10        57.1314    1.9047    3.9009 C.ar        1 LGB       0.0001
     11 C11        57.6549    0.5849    4.0347 C.ar        1 LGB      -0.0192
     12 C12        58.4805    0.2897    5.1608 C.ar        1 LGB       0.0660
     13 C13        58.8397    1.3220    6.0682 C.ar        1 LGB       0.0905
     14 C14        58.3792    2.6380    5.8573 C.ar        1 LGB      -0.0438
     15 C15        57.5248    2.9227    4.7868 C.ar        1 LGB      -0.0559
     16 C16        57.3839   -0.4052    2.9447 C.3         1 LGB      -0.0320
     17 CL17       59.0888   -1.2829    5.4118 Cl          1 LGB      -0.0696
     18 O18        50.7772    0.4553    3.6641 O.3         1 LGB      -0.3892
     19 C19        59.6339    1.1123    7.0814 C.1         1 LGB       0.0860
     20 N20        60.3381    0.9351    7.9702 N.1         1 LGB      -0.3388
     21 C21        52.6977    1.2107    0.1890 C.3         1 LGB       0.4246
     22 F22        51.3962    0.7661    0.1806 F           1 LGB      -0.1673
     23 F23        53.5126    0.1546   -0.1395 F           1 LGB      -0.1673
     24 F24        52.8459    2.1464   -0.8052 F           1 LGB      -0.1673
     25 H1         54.6053    1.5355    5.3476 H           1 LGB       0.0541
     26 H2         54.9759   -0.1781    4.9460 H           1 LGB       0.0541
     27 H3         52.9648   -0.2327    2.3835 H           1 LGB       0.0637
     28 H4         51.9434    2.0729    4.1533 H           1 LGB       0.0619
     29 H5         52.5136    0.6516    6.0250 H           1 LGB       0.0312
     30 H6         52.6985   -0.7770    4.9850 H           1 LGB       0.0312
     31 H7         52.4081    2.6597    1.7838 H           1 LGB       0.0794
     32 H8         58.6613    3.4081    6.4706 H           1 LGB       0.0636
     33 H9         57.1833    3.8795    4.6575 H           1 LGB       0.0538
     34 H10        57.8023   -1.3962    3.1377 H           1 LGB       0.0378
     35 H11        56.3059   -0.5317    2.8181 H           1 LGB       0.0378
     36 H12        57.8275   -0.0314    2.0163 H           1 LGB       0.0378
     37 H13        50.3438    1.0760    3.0383 H           1 LGB       0.2099
@<TRIPOS>BOND
     1     1     2   1
     2     1     5   1
     3     2     3   1
     4     2     6   1
     5     3     4   1
     6     3     8   1
     7     4     5   1
     8     4    18   1
     9     6     7   1
    10     6     9   2
    11     7     8   1
    12     8    21   1
    13     9    10   1
    14    10    11  ar
    15    10    15  ar
    16    11    12  ar
    17    11    16   1
    18    12    13  ar
    19    12    17   1
    20    13    14  ar
    21    13    19   1
    22    14    15  ar
    23    19    20   3
    24    21    22   1
    25    21    23   1
    26    21    24   1
    27     1    25   1
    28     1    26   1
    29     3    27   1
    30     4    28   1
    31     5    29   1
    32     5    30   1
    33     8    31   1
    34    14    32   1
    35    15    33   1
    36    16    34   1
    37    16    35   1
    38    16    36   1
    39    18    37   1
@<TRIPOS>SUBSTRUCTURE
     1  LGB      1

