@<TRIPOS>MOLECULE
3g0w_ligand_025
    37    39
SMALL
GAST_HUCK
****
This file was generated by PARSER (from files_GN.cpp)

@<TRIPOS>ATOM
      1 C1         58.5394    2.3813    5.0037 C.3         1 LGB       0.0449
      2 N2         57.5854    1.5882    5.6914 N.pl3       1 LGB      -0.2354
      3 C3         58.1153    0.6205    6.5594 C.3         1 LGB       0.1199
      4 C4         59.5774    1.0508    6.8055 C.3         1 LGB       0.0850
      5 C5         59.8985    1.9899    5.6228 C.3         1 LGB      -0.0025
      6 C6         56.2838    1.8107    5.9702 C.2         1 LGB       0.2667
      7 O7         55.8701    1.0528    7.0240 O.3         1 LGB      -0.2358
      8 C8         57.0918    0.7334    7.7143 C.3         1 LGB       0.2188
      9 N9         55.3791    2.6649    5.4466 N.2         1 LGB      -0.2946
     10 C10        54.8621    3.6466    4.6616 C.ar        1 LGB       0.0001
     11 C11        53.4575    3.8985    4.6569 C.ar        1 LGB      -0.0192
     12 C12        52.9419    4.9657    3.8641 C.ar        1 LGB       0.0660
     13 C13        53.8268    5.7651    3.0900 C.ar        1 LGB       0.0905
     14 C14        55.2099    5.4993    3.1037 C.ar        1 LGB      -0.0438
     15 C15        55.7173    4.4498    3.8803 C.ar        1 LGB      -0.0559
     16 C16        52.5162    3.0598    5.4535 C.3         1 LGB      -0.0320
     17 CL17       51.2626    5.2998    3.8412 Cl          1 LGB      -0.0696
     18 O18        60.4562   -0.0721    6.8436 O.3         1 LGB      -0.3892
     19 C19        53.4053    6.7376    2.3286 C.1         1 LGB       0.0860
     20 N20        53.0343    7.5804    1.6421 N.1         1 LGB      -0.3388
     21 C21        56.9516   -0.5047    8.6363 C.3         1 LGB       0.4246
     22 F22        58.1755   -0.8962    9.1206 F           1 LGB      -0.1673
     23 F23        56.3762   -1.5573    7.9761 F           1 LGB      -0.1673
     24 F24        56.1556   -0.2047    9.7161 F           1 LGB      -0.1673
     25 H1         58.3590    3.4430    5.1808 H           1 LGB       0.0541
     26 H2         58.5059    2.1694    3.9302 H           1 LGB       0.0541
     27 H3         58.0651   -0.3599    6.0706 H           1 LGB       0.0637
     28 H4         59.6643    1.5977    7.7485 H           1 LGB       0.0619
     29 H5         60.4334    2.8762    5.9811 H           1 LGB       0.0312
     30 H6         60.5242    1.4872    4.8843 H           1 LGB       0.0312
     31 H7         57.3527    1.5879    8.3483 H           1 LGB       0.0794
     32 H8         55.8690    6.0591    2.5493 H           1 LGB       0.0636
     33 H9         56.7206    4.2937    3.8803 H           1 LGB       0.0538
     34 H10        53.0087    2.2535    5.9908 H           1 LGB       0.0378
     35 H11        51.7750    2.6042    4.7944 H           1 LGB       0.0378
     36 H12        52.0052    3.6827    6.1882 H           1 LGB       0.0378
     37 H13        61.3507    0.3065    6.9866 H           1 LGB       0.2099
@<TRIPOS>BOND
     1     1     2   1
     2     1     5   1
     3     2     3   1
     4     2     6   1
     5     3     4   1
     6     3     8   1
     7     4     5   1
     8     4    18   1
     9     6     7   1
    10     6     9   2
    11     7     8   1
    12     8    21   1
    13     9    10   1
    14    10    11  ar
    15    10    15  ar
    16    11    12  ar
    17    11    16   1
    18    12    13  ar
    19    12    17   1
    20    13    14  ar
    21    13    19   1
    22    14    15  ar
    23    19    20   3
    24    21    22   1
    25    21    23   1
    26    21    24   1
    27     1    25   1
    28     1    26   1
    29     3    27   1
    30     4    28   1
    31     5    29   1
    32     5    30   1
    33     8    31   1
    34    14    32   1
    35    15    33   1
    36    16    34   1
    37    16    35   1
    38    16    36   1
    39    18    37   1
@<TRIPOS>SUBSTRUCTURE
     1  LGB      1

