@<TRIPOS>MOLECULE
3g0w_ligand_002
    37    39
SMALL
GAST_HUCK
****
This file was generated by PARSER (from files_GN.cpp)

@<TRIPOS>ATOM
      1 C1         55.8728    2.4323    5.8928 C.3         1 LGB       0.0449
      2 N2         56.0381    1.6746    4.6962 N.pl3       1 LGB      -0.2354
      3 C3         56.9753    0.6340    4.7635 C.3         1 LGB       0.1199
      4 C4         57.1339    0.3829    6.2791 C.3         1 LGB       0.0850
      5 C5         56.8592    1.7761    6.8825 C.3         1 LGB      -0.0025
      6 C6         55.1652    1.4667    3.6905 C.2         1 LGB       0.2667
      7 O7         55.4374    0.3250    2.9988 O.3         1 LGB      -0.2358
      8 C8         56.2805   -0.4364    3.8803 C.3         1 LGB       0.2188
      9 N9         54.0705    2.1806    3.3469 N.2         1 LGB      -0.2946
     10 C10        53.6327    3.3910    3.7874 C.ar        1 LGB       0.0001
     11 C11        54.3599    4.6061    3.6297 C.ar        1 LGB      -0.0192
     12 C12        53.8068    5.8147    4.1464 C.ar        1 LGB       0.0660
     13 C13        52.5116    5.8142    4.7299 C.ar        1 LGB       0.0905
     14 C14        51.7931    4.6061    4.8393 C.ar        1 LGB      -0.0438
     15 C15        52.3507    3.4078    4.3717 C.ar        1 LGB      -0.0559
     16 C16        55.6497    4.6453    2.8784 C.3         1 LGB      -0.0320
     17 CL17       54.6913    7.2752    4.0619 Cl          1 LGB      -0.0696
     18 O18        58.4315   -0.1130    6.6085 O.3         1 LGB      -0.3892
     19 C19        51.9261    6.9214    5.1071 C.1         1 LGB       0.0860
     20 N20        51.4240    7.9143    5.3959 N.1         1 LGB      -0.3388
     21 C21        57.2407   -1.3624    3.0886 C.3         1 LGB       0.4246
     22 F22        58.0391   -2.0778    3.9501 F           1 LGB      -0.1673
     23 F23        58.0469   -0.6454    2.2342 F           1 LGB      -0.1673
     24 F24        56.5203   -2.2590    2.3339 F           1 LGB      -0.1673
     25 H1         56.1236    3.4833    5.7335 H           1 LGB       0.0541
     26 H2         54.8457    2.3418    6.2660 H           1 LGB       0.0541
     27 H3         57.9162    0.9859    4.3223 H           1 LGB       0.0637
     28 H4         56.3797   -0.3256    6.6373 H           1 LGB       0.0619
     29 H5         56.4318    1.7004    7.8851 H           1 LGB       0.0312
     30 H6         57.7851    2.3590    6.9333 H           1 LGB       0.0312
     31 H7         55.6262   -1.0630    4.4982 H           1 LGB       0.0794
     32 H8         50.8541    4.5826    5.2516 H           1 LGB       0.0636
     33 H9         51.8134    2.5409    4.4669 H           1 LGB       0.0538
     34 H10        55.9111    3.6942    2.4123 H           1 LGB       0.0378
     35 H11        56.4561    4.9308    3.5550 H           1 LGB       0.0378
     36 H12        55.5859    5.3809    2.0745 H           1 LGB       0.0378
     37 H13        58.4117   -0.2618    7.5789 H           1 LGB       0.2099
@<TRIPOS>BOND
     1     1     2   1
     2     1     5   1
     3     2     3   1
     4     2     6   1
     5     3     4   1
     6     3     8   1
     7     4     5   1
     8     4    18   1
     9     6     7   1
    10     6     9   2
    11     7     8   1
    12     8    21   1
    13     9    10   1
    14    10    11  ar
    15    10    15  ar
    16    11    12  ar
    17    11    16   1
    18    12    13  ar
    19    12    17   1
    20    13    14  ar
    21    13    19   1
    22    14    15  ar
    23    19    20   3
    24    21    22   1
    25    21    23   1
    26    21    24   1
    27     1    25   1
    28     1    26   1
    29     3    27   1
    30     4    28   1
    31     5    29   1
    32     5    30   1
    33     8    31   1
    34    14    32   1
    35    15    33   1
    36    16    34   1
    37    16    35   1
    38    16    36   1
    39    18    37   1
@<TRIPOS>SUBSTRUCTURE
     1  LGB      1

