@<TRIPOS>MOLECULE
3g0w_ligand_020
    37    39
SMALL
GAST_HUCK
****
This file was generated by PARSER (from files_GN.cpp)

@<TRIPOS>ATOM
      1 C1         52.4207    1.2240    3.7923 C.3         1 LGB       0.0449
      2 N2         53.8079    1.5479    3.9449 N.pl3       1 LGB      -0.2354
      3 C3         54.1744    2.6821    3.1888 C.3         1 LGB       0.1199
      4 C4         53.0002    2.9469    2.2298 C.3         1 LGB       0.0850
      5 C5         51.7969    2.3736    2.9889 C.3         1 LGB      -0.0025
      6 C6         54.3046    1.7232    5.1839 C.2         1 LGB       0.2667
      7 O7         54.3133    3.0283    5.5473 O.3         1 LGB      -0.2358
      8 C8         54.4135    3.7476    4.3035 C.3         1 LGB       0.2188
      9 N9         55.3906    1.0677    5.6522 N.2         1 LGB      -0.2946
     10 C10        56.1856    0.0526    5.2095 C.ar        1 LGB       0.0001
     11 C11        55.8197   -1.0167    4.3433 C.ar        1 LGB      -0.0192
     12 C12        56.8483   -1.7301    3.6700 C.ar        1 LGB       0.0660
     13 C13        58.2111   -1.4672    3.9625 C.ar        1 LGB       0.0905
     14 C14        58.5460   -0.5118    4.9429 C.ar        1 LGB      -0.0438
     15 C15        57.5410    0.2515    5.5446 C.ar        1 LGB      -0.0559
     16 C16        54.4106   -1.4804    4.2279 C.3         1 LGB      -0.0320
     17 CL17       56.4453   -2.8761    2.4776 Cl          1 LGB      -0.0696
     18 O18        53.2052    2.2910    0.9754 O.3         1 LGB      -0.3892
     19 C19        59.1957   -2.0645    3.3392 C.1         1 LGB       0.0860
     20 N20        60.0649   -2.5694    2.7799 N.1         1 LGB      -0.3388
     21 C21        55.7697    4.5032    4.1881 C.3         1 LGB       0.4246
     22 F22        55.9216    5.0604    2.9428 F           1 LGB      -0.1673
     23 F23        56.8274    3.6653    4.4347 F           1 LGB      -0.1673
     24 F24        55.8193    5.5265    5.1033 F           1 LGB      -0.1673
     25 H1         51.8809    1.0856    4.7399 H           1 LGB       0.0541
     26 H2         52.3091    0.3088    3.2174 H           1 LGB       0.0541
     27 H3         55.0917    2.4698    2.6206 H           1 LGB       0.0637
     28 H4         52.8691    4.0119    2.0474 H           1 LGB       0.0619
     29 H5         51.3811    3.1337    3.6611 H           1 LGB       0.0312
     30 H6         51.0061    2.0118    2.3284 H           1 LGB       0.0312
     31 H7         53.6075    4.4921    4.3049 H           1 LGB       0.0794
     32 H8         59.5197   -0.3204    5.1925 H           1 LGB       0.0636
     33 H9         57.8140    0.9972    6.1882 H           1 LGB       0.0538
     34 H10        54.0340   -1.3193    3.2024 H           1 LGB       0.0378
     35 H11        53.7455   -0.9869    4.9353 H           1 LGB       0.0378
     36 H12        54.3468   -2.5501    4.4369 H           1 LGB       0.0378
     37 H13        53.4302    1.3521    1.1842 H           1 LGB       0.2099
@<TRIPOS>BOND
     1     1     2   1
     2     1     5   1
     3     2     3   1
     4     2     6   1
     5     3     4   1
     6     3     8   1
     7     4     5   1
     8     4    18   1
     9     6     7   1
    10     6     9   2
    11     7     8   1
    12     8    21   1
    13     9    10   1
    14    10    11  ar
    15    10    15  ar
    16    11    12  ar
    17    11    16   1
    18    12    13  ar
    19    12    17   1
    20    13    14  ar
    21    13    19   1
    22    14    15  ar
    23    19    20   3
    24    21    22   1
    25    21    23   1
    26    21    24   1
    27     1    25   1
    28     1    26   1
    29     3    27   1
    30     4    28   1
    31     5    29   1
    32     5    30   1
    33     8    31   1
    34    14    32   1
    35    15    33   1
    36    16    34   1
    37    16    35   1
    38    16    36   1
    39    18    37   1
@<TRIPOS>SUBSTRUCTURE
     1  LGB      1

