@<TRIPOS>MOLECULE
3g0w_ligand_021
    37    39
SMALL
GAST_HUCK
****
This file was generated by PARSER (from files_GN.cpp)

@<TRIPOS>ATOM
      1 C1         56.2901    1.2896    3.6476 C.3         1 LGB       0.0449
      2 N2         54.9606    1.3921    3.1475 N.pl3       1 LGB      -0.2354
      3 C3         54.3496    0.1917    2.7694 C.3         1 LGB       0.1199
      4 C4         55.1191   -0.8410    3.6175 C.3         1 LGB       0.0850
      5 C5         56.5400   -0.2353    3.6555 C.3         1 LGB      -0.0025
      6 C6         54.0413    2.3362    3.4066 C.2         1 LGB       0.2667
      7 O7         52.7787    1.9345    3.1242 O.3         1 LGB      -0.2358
      8 C8         52.8655    0.5043    3.0956 C.3         1 LGB       0.2188
      9 N9         54.3459    3.5605    3.8749 N.2         1 LGB      -0.2946
     10 C10        53.5916    4.6362    4.2276 C.ar        1 LGB       0.0001
     11 C11        54.1789    5.9273    4.1574 C.ar        1 LGB      -0.0192
     12 C12        53.3880    7.0717    4.4680 C.ar        1 LGB       0.0660
     13 C13        52.0582    6.9146    4.9433 C.ar        1 LGB       0.0905
     14 C14        51.4951    5.6247    5.0134 C.ar        1 LGB      -0.0438
     15 C15        52.2506    4.5009    4.6499 C.ar        1 LGB      -0.0559
     16 C16        55.5999    6.1016    3.7431 C.3         1 LGB      -0.0320
     17 CL17       54.0139    8.6379    4.2239 Cl          1 LGB      -0.0696
     18 O18        55.0773   -2.1411    3.0370 O.3         1 LGB      -0.3892
     19 C19        51.3331    7.9310    5.3317 C.1         1 LGB       0.0860
     20 N20        50.7140    8.8365    5.6728 N.1         1 LGB      -0.3388
     21 C21        51.8225   -0.0315    2.0862 C.3         1 LGB       0.4246
     22 F22        51.8906   -1.3951    1.9821 F           1 LGB      -0.1673
     23 F23        51.9832    0.5134    0.8337 F           1 LGB      -0.1673
     24 F24        50.5664    0.2856    2.5377 F           1 LGB      -0.1673
     25 H1         56.3553    1.6873    4.6647 H           1 LGB       0.0541
     26 H2         56.9955    1.8164    3.0012 H           1 LGB       0.0541
     27 H3         54.5157    0.0335    1.6988 H           1 LGB       0.0637
     28 H4         54.7145   -0.8853    4.6346 H           1 LGB       0.0619
     29 H5         57.0953   -0.5522    4.5417 H           1 LGB       0.0312
     30 H6         57.0981   -0.5261    2.7590 H           1 LGB       0.0312
     31 H7         52.6145    0.1297    4.0930 H           1 LGB       0.0794
     32 H8         50.5285    5.4860    5.3272 H           1 LGB       0.0636
     33 H9         51.8140    3.5802    4.7317 H           1 LGB       0.0538
     34 H10        56.1556    5.1735    3.6114 H           1 LGB       0.0378
     35 H11        56.1234    6.6826    4.4997 H           1 LGB       0.0378
     36 H12        55.6258    6.6296    2.7954 H           1 LGB       0.0378
     37 H13        55.5532   -2.7229    3.6666 H           1 LGB       0.2099
@<TRIPOS>BOND
     1     1     2   1
     2     1     5   1
     3     2     3   1
     4     2     6   1
     5     3     4   1
     6     3     8   1
     7     4     5   1
     8     4    18   1
     9     6     7   1
    10     6     9   2
    11     7     8   1
    12     8    21   1
    13     9    10   1
    14    10    11  ar
    15    10    15  ar
    16    11    12  ar
    17    11    16   1
    18    12    13  ar
    19    12    17   1
    20    13    14  ar
    21    13    19   1
    22    14    15  ar
    23    19    20   3
    24    21    22   1
    25    21    23   1
    26    21    24   1
    27     1    25   1
    28     1    26   1
    29     3    27   1
    30     4    28   1
    31     5    29   1
    32     5    30   1
    33     8    31   1
    34    14    32   1
    35    15    33   1
    36    16    34   1
    37    16    35   1
    38    16    36   1
    39    18    37   1
@<TRIPOS>SUBSTRUCTURE
     1  LGB      1

