@<TRIPOS>MOLECULE
3g0w_ligand_054
    37    39
SMALL
GAST_HUCK
****
This file was generated by PARSER (from files_GN.cpp)

@<TRIPOS>ATOM
      1 C1         53.1368    8.8352    3.8291 C.3         1 LGB       0.0449
      2 N2         52.1949    7.9823    4.4762 N.pl3       1 LGB      -0.2354
      3 C3         52.1722    6.6631    3.9823 C.3         1 LGB       0.1199
      4 C4         53.5585    6.4965    3.3274 C.3         1 LGB       0.0850
      5 C5         53.8066    7.9140    2.7965 C.3         1 LGB      -0.0025
      6 C6         51.6881    8.0320    5.7255 C.2         1 LGB       0.2667
      7 O7         51.2973    6.8012    6.1518 O.3         1 LGB      -0.2358
      8 C8         51.8584    5.8373    5.2480 C.3         1 LGB       0.2188
      9 N9         51.4468    9.0559    6.5761 N.2         1 LGB      -0.2946
     10 C10        51.4138   10.3906    6.8553 C.ar        1 LGB       0.0001
     11 C11        50.9356   10.8438    8.1192 C.ar        1 LGB      -0.0192
     12 C12        50.6878   12.2352    8.3291 C.ar        1 LGB       0.0660
     13 C13        50.9727   13.1691    7.2991 C.ar        1 LGB       0.0905
     14 C14        51.5146   12.7145    6.0828 C.ar        1 LGB      -0.0438
     15 C15        51.7075   11.3411    5.8616 C.ar        1 LGB      -0.0559
     16 C16        50.6595    9.8798    9.2253 C.3         1 LGB      -0.0320
     17 CL17       50.0156   12.7923    9.8013 Cl          1 LGB      -0.0696
     18 O18        53.5769    5.5233    2.2865 O.3         1 LGB      -0.3892
     19 C19        50.7221   14.4480    7.4107 C.1         1 LGB       0.0860
     20 N20        50.4882   15.5687    7.5022 N.1         1 LGB      -0.3388
     21 C21        50.8984    4.6340    5.0446 C.3         1 LGB       0.4246
     22 F22        51.4089    3.7539    4.1213 F           1 LGB      -0.1673
     23 F23        49.6588    5.0449    4.6176 F           1 LGB      -0.1673
     24 F24        50.7353    3.9521    6.2259 F           1 LGB      -0.1673
     25 H1         53.8764    9.2013    4.5443 H           1 LGB       0.0541
     26 H2         52.6841    9.6773    3.3099 H           1 LGB       0.0541
     27 H3         51.3719    6.5810    3.2381 H           1 LGB       0.0637
     28 H4         54.3249    6.2444    4.0688 H           1 LGB       0.0619
     29 H5         54.8727    8.1256    2.7153 H           1 LGB       0.0312
     30 H6         53.3269    8.0337    1.8212 H           1 LGB       0.0312
     31 H7         52.7864    5.4586    5.6902 H           1 LGB       0.0794
     32 H8         51.7376   13.3682    5.3231 H           1 LGB       0.0636
     33 H9         52.0340   11.0498    4.9491 H           1 LGB       0.0538
     34 H10        50.9520    8.8591    8.9937 H           1 LGB       0.0378
     35 H11        49.5926    9.8816    9.4537 H           1 LGB       0.0378
     36 H12        51.2174   10.1718   10.1169 H           1 LGB       0.0378
     37 H13        53.3942    4.6668    2.7282 H           1 LGB       0.2099
@<TRIPOS>BOND
     1     1     2   1
     2     1     5   1
     3     2     3   1
     4     2     6   1
     5     3     4   1
     6     3     8   1
     7     4     5   1
     8     4    18   1
     9     6     7   1
    10     6     9   2
    11     7     8   1
    12     8    21   1
    13     9    10   1
    14    10    11  ar
    15    10    15  ar
    16    11    12  ar
    17    11    16   1
    18    12    13  ar
    19    12    17   1
    20    13    14  ar
    21    13    19   1
    22    14    15  ar
    23    19    20   3
    24    21    22   1
    25    21    23   1
    26    21    24   1
    27     1    25   1
    28     1    26   1
    29     3    27   1
    30     4    28   1
    31     5    29   1
    32     5    30   1
    33     8    31   1
    34    14    32   1
    35    15    33   1
    36    16    34   1
    37    16    35   1
    38    16    36   1
    39    18    37   1
@<TRIPOS>SUBSTRUCTURE
     1  LGB      1

