@<TRIPOS>MOLECULE
3g0w_ligand_064
    37    39
SMALL
GAST_HUCK
****
This file was generated by PARSER (from files_GN.cpp)

@<TRIPOS>ATOM
      1 C1         55.6098    0.9151    4.7831 C.3         1 LGB       0.0449
      2 N2         56.4428   -0.1753    4.3919 N.pl3       1 LGB      -0.2354
      3 C3         55.9505   -0.9186    3.3156 C.3         1 LGB       0.1199
      4 C4         55.1624    0.1388    2.5186 C.3         1 LGB       0.0850
      5 C5         54.5701    1.0121    3.6461 C.3         1 LGB      -0.0025
      6 C6         57.6910   -0.5820    4.7248 C.2         1 LGB       0.2667
      7 O7         58.2105   -1.4648    3.8401 O.3         1 LGB      -0.2358
      8 C8         57.2582   -1.5382    2.7687 C.3         1 LGB       0.2188
      9 N9         58.4529   -0.2593    5.7942 N.2         1 LGB      -0.2946
     10 C10        57.9950    0.4960    6.8096 C.ar        1 LGB       0.0001
     11 C11        58.0522    1.9106    6.7508 C.ar        1 LGB      -0.0192
     12 C12        57.1082    2.6392    7.5295 C.ar        1 LGB       0.0660
     13 C13        56.2391    1.9574    8.4312 C.ar        1 LGB       0.0905
     14 C14        56.3822    0.5693    8.6252 C.ar        1 LGB      -0.0438
     15 C15        57.2296   -0.1630    7.7894 C.ar        1 LGB      -0.0559
     16 C16        59.0117    2.5556    5.8061 C.3         1 LGB      -0.0320
     17 CL17       56.9705    4.3245    7.3366 Cl          1 LGB      -0.0696
     18 O18        54.1433   -0.4095    1.6848 O.3         1 LGB      -0.3892
     19 C19        55.2865    2.5476    9.1053 C.1         1 LGB       0.0860
     20 N20        54.4394    3.0497    9.6962 N.1         1 LGB      -0.3388
     21 C21        57.1215   -3.0153    2.3380 C.3         1 LGB       0.4246
     22 F22        56.1833   -3.1302    1.3420 F           1 LGB      -0.1673
     23 F23        56.7604   -3.8088    3.4028 F           1 LGB      -0.1673
     24 F24        58.3205   -3.4795    1.8619 F           1 LGB      -0.1673
     25 H1         56.1794    1.8438    4.8126 H           1 LGB       0.0541
     26 H2         55.1345    0.7339    5.7470 H           1 LGB       0.0541
     27 H3         55.2659   -1.6828    3.7054 H           1 LGB       0.0637
     28 H4         55.8392    0.7362    1.8993 H           1 LGB       0.0619
     29 H5         53.6127    0.6040    3.9876 H           1 LGB       0.0312
     30 H6         54.4217    2.0426    3.3128 H           1 LGB       0.0312
     31 H7         57.6335   -0.9390    1.9329 H           1 LGB       0.0794
     32 H8         55.8159    0.0615    9.3142 H           1 LGB       0.0636
     33 H9         57.2148   -1.1824    7.8424 H           1 LGB       0.0538
     34 H10        59.9659    2.0240    5.8123 H           1 LGB       0.0378
     35 H11        58.6040    2.5321    4.7954 H           1 LGB       0.0378
     36 H12        59.2298    3.5913    6.0673 H           1 LGB       0.0378
     37 H13        53.6225   -1.0055    2.2675 H           1 LGB       0.2099
@<TRIPOS>BOND
     1     1     2   1
     2     1     5   1
     3     2     3   1
     4     2     6   1
     5     3     4   1
     6     3     8   1
     7     4     5   1
     8     4    18   1
     9     6     7   1
    10     6     9   2
    11     7     8   1
    12     8    21   1
    13     9    10   1
    14    10    11  ar
    15    10    15  ar
    16    11    12  ar
    17    11    16   1
    18    12    13  ar
    19    12    17   1
    20    13    14  ar
    21    13    19   1
    22    14    15  ar
    23    19    20   3
    24    21    22   1
    25    21    23   1
    26    21    24   1
    27     1    25   1
    28     1    26   1
    29     3    27   1
    30     4    28   1
    31     5    29   1
    32     5    30   1
    33     8    31   1
    34    14    32   1
    35    15    33   1
    36    16    34   1
    37    16    35   1
    38    16    36   1
    39    18    37   1
@<TRIPOS>SUBSTRUCTURE
     1  LGB      1

