@<TRIPOS>MOLECULE
3g0w_ligand_056
    37    39
SMALL
GAST_HUCK
****
This file was generated by PARSER (from files_GN.cpp)

@<TRIPOS>ATOM
      1 C1         54.0607   -0.3412    4.0185 C.3         1 LGB       0.0449
      2 N2         55.4424   -0.1679    3.7287 N.pl3       1 LGB      -0.2354
      3 C3         56.2194   -1.3282    3.7539 C.3         1 LGB       0.1199
      4 C4         55.1851   -2.4585    3.6166 C.3         1 LGB       0.0850
      5 C5         53.9396   -1.8528    4.2884 C.3         1 LGB      -0.0025
      6 C6         56.0763    0.8142    3.0557 C.2         1 LGB       0.2667
      7 O7         57.2682    0.4008    2.5368 O.3         1 LGB      -0.2358
      8 C8         57.2136   -1.0399    2.6048 C.3         1 LGB       0.2188
      9 N9         55.6611    2.0860    2.8581 N.2         1 LGB      -0.2946
     10 C10        54.5978    2.7069    3.4402 C.ar        1 LGB       0.0001
     11 C11        54.4753    2.9074    4.8451 C.ar        1 LGB      -0.0192
     12 C12        53.2486    3.4228    5.3623 C.ar        1 LGB       0.0660
     13 C13        52.2068    3.8191    4.4805 C.ar        1 LGB       0.0905
     14 C14        52.3827    3.6743    3.0937 C.ar        1 LGB      -0.0438
     15 C15        53.5642    3.1181    2.5803 C.ar        1 LGB      -0.0559
     16 C16        55.6073    2.5962    5.7674 C.3         1 LGB      -0.0320
     17 CL17       53.0000    3.5413    7.0487 Cl          1 LGB      -0.0696
     18 O18        55.6057   -3.6580    4.2556 O.3         1 LGB      -0.3892
     19 C19        51.0710    4.3128    4.8943 C.1         1 LGB       0.0860
     20 N20        50.0697    4.7434    5.2489 N.1         1 LGB      -0.3388
     21 C21        58.6183   -1.6738    2.8064 C.3         1 LGB       0.4246
     22 F22        58.5338   -3.0391    2.9353 F           1 LGB      -0.1673
     23 F23        59.2224   -1.1734    3.9330 F           1 LGB      -0.1673
     24 F24        59.4309   -1.3976    1.7312 F           1 LGB      -0.1673
     25 H1         53.4508   -0.0659    3.1556 H           1 LGB       0.0541
     26 H2         53.7501    0.2348    4.8918 H           1 LGB       0.0541
     27 H3         56.7240   -1.3718    4.7235 H           1 LGB       0.0637
     28 H4         54.9840   -2.6687    2.5634 H           1 LGB       0.0619
     29 H5         53.0256   -2.2672    3.8647 H           1 LGB       0.0312
     30 H6         53.9503   -2.0423    5.3654 H           1 LGB       0.0312
     31 H7         56.7968   -1.3992    1.6545 H           1 LGB       0.0794
     32 H8         51.6414    3.9467    2.4459 H           1 LGB       0.0636
     33 H9         53.6453    2.9794    1.5703 H           1 LGB       0.0538
     34 H10        56.5155    2.2793    5.2564 H           1 LGB       0.0378
     35 H11        55.3159    1.8012    6.4565 H           1 LGB       0.0378
     36 H12        55.8707    3.4876    6.3390 H           1 LGB       0.0378
     37 H13        54.8227   -4.2478    4.2364 H           1 LGB       0.2099
@<TRIPOS>BOND
     1     1     2   1
     2     1     5   1
     3     2     3   1
     4     2     6   1
     5     3     4   1
     6     3     8   1
     7     4     5   1
     8     4    18   1
     9     6     7   1
    10     6     9   2
    11     7     8   1
    12     8    21   1
    13     9    10   1
    14    10    11  ar
    15    10    15  ar
    16    11    12  ar
    17    11    16   1
    18    12    13  ar
    19    12    17   1
    20    13    14  ar
    21    13    19   1
    22    14    15  ar
    23    19    20   3
    24    21    22   1
    25    21    23   1
    26    21    24   1
    27     1    25   1
    28     1    26   1
    29     3    27   1
    30     4    28   1
    31     5    29   1
    32     5    30   1
    33     8    31   1
    34    14    32   1
    35    15    33   1
    36    16    34   1
    37    16    35   1
    38    16    36   1
    39    18    37   1
@<TRIPOS>SUBSTRUCTURE
     1  LGB      1

