@<TRIPOS>MOLECULE
3g0w_ligand_033
    37    39
SMALL
GAST_HUCK
****
This file was generated by PARSER (from files_GN.cpp)

@<TRIPOS>ATOM
      1 C1         56.0048    1.0570    6.7437 C.3         1 LGB       0.0449
      2 N2         57.1115    1.7097    6.1566 N.pl3       1 LGB      -0.2354
      3 C3         58.3433    1.4276    6.7519 C.3         1 LGB       0.1199
      4 C4         58.1136    0.1114    7.5154 C.3         1 LGB       0.0850
      5 C5         56.6197    0.2027    7.8720 C.3         1 LGB      -0.0025
      6 C6         57.2853    2.3636    4.9890 C.2         1 LGB       0.2667
      7 O7         58.6070    2.3941    4.6322 O.3         1 LGB      -0.2358
      8 C8         59.2652    1.4682    5.5209 C.3         1 LGB       0.2188
      9 N9         56.4176    3.0725    4.2307 N.2         1 LGB      -0.2946
     10 C10        55.1165    3.4573    4.0811 C.ar        1 LGB       0.0001
     11 C11        54.8263    4.7178    3.4806 C.ar        1 LGB      -0.0192
     12 C12        53.4692    5.1411    3.3528 C.ar        1 LGB       0.0660
     13 C13        52.4155    4.2935    3.7772 C.ar        1 LGB       0.0905
     14 C14        52.7160    3.0392    4.3442 C.ar        1 LGB      -0.0438
     15 C15        54.0483    2.6322    4.4861 C.ar        1 LGB      -0.0559
     16 C16        55.9191    5.6179    3.0043 C.3         1 LGB      -0.0320
     17 CL17       53.0960    6.6878    2.7204 Cl          1 LGB      -0.0696
     18 O18        58.9361    0.0125    8.6706 O.3         1 LGB      -0.3892
     19 C19        51.1578    4.6319    3.6708 C.1         1 LGB       0.0860
     20 N20        50.0562    4.9423    3.5776 N.1         1 LGB      -0.3388
     21 C21        60.7151    1.9010    5.8624 C.3         1 LGB       0.4246
     22 F22        61.2296    1.1282    6.8750 F           1 LGB      -0.1673
     23 F23        60.7536    3.2249    6.2243 F           1 LGB      -0.1673
     24 F24        61.5510    1.7457    4.7925 F           1 LGB      -0.1673
     25 H1         55.5421    0.3862    6.0151 H           1 LGB       0.0541
     26 H2         55.2848    1.7855    7.1240 H           1 LGB       0.0541
     27 H3         58.5768    2.2392    7.4511 H           1 LGB       0.0637
     28 H4         58.2932   -0.7458    6.8636 H           1 LGB       0.0619
     29 H5         56.1750   -0.7951    7.9198 H           1 LGB       0.0312
     30 H6         56.4826    0.7014    8.8359 H           1 LGB       0.0312
     31 H7         59.2878    0.4843    5.0382 H           1 LGB       0.0794
     32 H8         51.9733    2.4039    4.6578 H           1 LGB       0.0636
     33 H9         54.2164    1.7050    4.8496 H           1 LGB       0.0538
     34 H10        56.9153    5.2025    3.1315 H           1 LGB       0.0378
     35 H11        55.8837    6.5582    3.5579 H           1 LGB       0.0378
     36 H12        55.7883    5.8162    1.9384 H           1 LGB       0.0378
     37 H13        58.4932   -0.6570    9.2320 H           1 LGB       0.2099
@<TRIPOS>BOND
     1     1     2   1
     2     1     5   1
     3     2     3   1
     4     2     6   1
     5     3     4   1
     6     3     8   1
     7     4     5   1
     8     4    18   1
     9     6     7   1
    10     6     9   2
    11     7     8   1
    12     8    21   1
    13     9    10   1
    14    10    11  ar
    15    10    15  ar
    16    11    12  ar
    17    11    16   1
    18    12    13  ar
    19    12    17   1
    20    13    14  ar
    21    13    19   1
    22    14    15  ar
    23    19    20   3
    24    21    22   1
    25    21    23   1
    26    21    24   1
    27     1    25   1
    28     1    26   1
    29     3    27   1
    30     4    28   1
    31     5    29   1
    32     5    30   1
    33     8    31   1
    34    14    32   1
    35    15    33   1
    36    16    34   1
    37    16    35   1
    38    16    36   1
    39    18    37   1
@<TRIPOS>SUBSTRUCTURE
     1  LGB      1

