@<TRIPOS>MOLECULE
3g0w_ligand_042
    37    39
SMALL
GAST_HUCK
****
This file was generated by PARSER (from files_GN.cpp)

@<TRIPOS>ATOM
      1 C1         50.9753    5.7444    3.3320 C.3         1 LGB       0.0449
      2 N2         52.2985    5.2899    3.0847 N.pl3       1 LGB      -0.2354
      3 C3         53.3205    6.2153    3.3209 C.3         1 LGB       0.1199
      4 C4         52.6495    7.4031    4.0469 C.3         1 LGB       0.0850
      5 C5         51.1810    6.9632    4.2508 C.3         1 LGB      -0.0025
      6 C6         52.7645    4.0326    3.2183 C.2         1 LGB       0.2667
      7 O7         54.0883    4.0057    3.5501 O.3         1 LGB      -0.2358
      8 C8         54.3099    5.3149    4.1001 C.3         1 LGB       0.2188
      9 N9         51.9745    2.9412    3.2029 N.2         1 LGB      -0.2946
     10 C10        52.4053    1.6989    3.5225 C.ar        1 LGB       0.0001
     11 C11        53.3055    0.9203    2.7379 C.ar        1 LGB      -0.0192
     12 C12        53.8119   -0.2981    3.2760 C.ar        1 LGB       0.0660
     13 C13        53.3572   -0.7487    4.5440 C.ar        1 LGB       0.0905
     14 C14        52.4200    0.0130    5.2673 C.ar        1 LGB      -0.0438
     15 C15        51.9444    1.2224    4.7565 C.ar        1 LGB      -0.0559
     16 C16        53.6548    1.4047    1.3765 C.3         1 LGB      -0.0320
     17 CL17       55.0128   -1.1969    2.4570 Cl          1 LGB      -0.0696
     18 O18        52.7486    8.5947    3.2628 O.3         1 LGB      -0.3892
     19 C19        53.7309   -1.8750    5.0755 C.1         1 LGB       0.0860
     20 N20        54.0464   -2.8721    5.5491 N.1         1 LGB      -0.3388
     21 C21        55.7872    5.7463    3.9810 C.3         1 LGB       0.4246
     22 F22        55.9507    7.0281    4.4464 F           1 LGB      -0.1673
     23 F23        56.2227    5.6912    2.6785 F           1 LGB      -0.1673
     24 F24        56.5785    4.9083    4.7272 F           1 LGB      -0.1673
     25 H1         50.3419    4.9981    3.8188 H           1 LGB       0.0541
     26 H2         50.5102    6.0405    2.3915 H           1 LGB       0.0541
     27 H3         53.7375    6.5257    2.3574 H           1 LGB       0.0637
     28 H4         53.1208    7.6162    5.0119 H           1 LGB       0.0619
     29 H5         51.0288    6.6692    5.2926 H           1 LGB       0.0312
     30 H6         50.4748    7.7586    4.0106 H           1 LGB       0.0312
     31 H7         54.0336    5.2811    5.1647 H           1 LGB       0.0794
     32 H8         52.0792   -0.2972    6.1805 H           1 LGB       0.0636
     33 H9         51.2758    1.7675    5.3111 H           1 LGB       0.0538
     34 H10        54.3481    2.2399    1.4606 H           1 LGB       0.0378
     35 H11        52.7564    1.7330    0.8511 H           1 LGB       0.0378
     36 H12        54.1087    0.6372    0.7534 H           1 LGB       0.0378
     37 H13        52.3710    8.3715    2.3842 H           1 LGB       0.2099
@<TRIPOS>BOND
     1     1     2   1
     2     1     5   1
     3     2     3   1
     4     2     6   1
     5     3     4   1
     6     3     8   1
     7     4     5   1
     8     4    18   1
     9     6     7   1
    10     6     9   2
    11     7     8   1
    12     8    21   1
    13     9    10   1
    14    10    11  ar
    15    10    15  ar
    16    11    12  ar
    17    11    16   1
    18    12    13  ar
    19    12    17   1
    20    13    14  ar
    21    13    19   1
    22    14    15  ar
    23    19    20   3
    24    21    22   1
    25    21    23   1
    26    21    24   1
    27     1    25   1
    28     1    26   1
    29     3    27   1
    30     4    28   1
    31     5    29   1
    32     5    30   1
    33     8    31   1
    34    14    32   1
    35    15    33   1
    36    16    34   1
    37    16    35   1
    38    16    36   1
    39    18    37   1
@<TRIPOS>SUBSTRUCTURE
     1  LGB      1

