@<TRIPOS>MOLECULE
3g0w_ligand_039
    37    39
SMALL
GAST_HUCK
****
This file was generated by PARSER (from files_GN.cpp)

@<TRIPOS>ATOM
      1 C1         54.1723   -0.9948    5.6059 C.3         1 LGB       0.0449
      2 N2         54.9572    0.1178    5.1078 N.pl3       1 LGB      -0.2354
      3 C3         54.8676    0.1885    3.7125 C.3         1 LGB       0.1199
      4 C4         54.5322   -1.2289    3.2259 C.3         1 LGB       0.0850
      5 C5         53.7007   -1.8138    4.3806 C.3         1 LGB      -0.0025
      6 C6         54.7012    1.3613    5.5364 C.2         1 LGB       0.2667
      7 O7         53.7236    1.9734    4.8221 O.3         1 LGB      -0.2358
      8 C8         53.7601    1.2888    3.5544 C.3         1 LGB       0.2188
      9 N9         55.6882    2.2208    5.8643 N.2         1 LGB      -0.2946
     10 C10        57.0319    2.1397    6.0579 C.ar        1 LGB       0.0001
     11 C11        57.7758    1.0582    6.6141 C.ar        1 LGB      -0.0192
     12 C12        59.1981    1.0333    6.4661 C.ar        1 LGB       0.0660
     13 C13        59.8645    2.1399    5.8707 C.ar        1 LGB       0.0905
     14 C14        59.1209    3.2513    5.4469 C.ar        1 LGB      -0.0438
     15 C15        57.7248    3.2387    5.5277 C.ar        1 LGB      -0.0559
     16 C16        57.0934   -0.0271    7.3461 C.3         1 LGB      -0.0320
     17 CL17       60.1033   -0.3212    6.9526 Cl          1 LGB      -0.0696
     18 O18        55.7237   -1.9987    3.0332 O.3         1 LGB      -0.3892
     19 C19        61.1640    2.1729    5.7018 C.1         1 LGB       0.0860
     20 N20        62.3055    2.1981    5.5382 N.1         1 LGB      -0.3388
     21 C21        53.9896    2.2915    2.3889 C.3         1 LGB       0.4246
     22 F22        53.9322    1.6377    1.1797 F           1 LGB      -0.1673
     23 F23        55.2008    2.9363    2.4988 F           1 LGB      -0.1673
     24 F24        53.0011    3.2512    2.3973 F           1 LGB      -0.1673
     25 H1         53.2788   -0.6968    6.1717 H           1 LGB       0.0541
     26 H2         54.7895   -1.6014    6.2700 H           1 LGB       0.0541
     27 H3         55.8174    0.5121    3.2791 H           1 LGB       0.0637
     28 H4         53.9669   -1.2135    2.2884 H           1 LGB       0.0619
     29 H5         52.6331   -1.6407    4.1900 H           1 LGB       0.0312
     30 H6         53.8566   -2.8901    4.5207 H           1 LGB       0.0312
     31 H7         52.7738    0.8167    3.4077 H           1 LGB       0.0794
     32 H8         59.5777    4.0725    5.0323 H           1 LGB       0.0636
     33 H9         57.2047    4.0254    5.1316 H           1 LGB       0.0538
     34 H10        56.9842   -0.8848    6.6780 H           1 LGB       0.0378
     35 H11        56.1071    0.2713    7.6942 H           1 LGB       0.0378
     36 H12        57.6447   -0.3251    8.2443 H           1 LGB       0.0378
     37 H13        56.1129   -2.0818    3.9337 H           1 LGB       0.2099
@<TRIPOS>BOND
     1     1     2   1
     2     1     5   1
     3     2     3   1
     4     2     6   1
     5     3     4   1
     6     3     8   1
     7     4     5   1
     8     4    18   1
     9     6     7   1
    10     6     9   2
    11     7     8   1
    12     8    21   1
    13     9    10   1
    14    10    11  ar
    15    10    15  ar
    16    11    12  ar
    17    11    16   1
    18    12    13  ar
    19    12    17   1
    20    13    14  ar
    21    13    19   1
    22    14    15  ar
    23    19    20   3
    24    21    22   1
    25    21    23   1
    26    21    24   1
    27     1    25   1
    28     1    26   1
    29     3    27   1
    30     4    28   1
    31     5    29   1
    32     5    30   1
    33     8    31   1
    34    14    32   1
    35    15    33   1
    36    16    34   1
    37    16    35   1
    38    16    36   1
    39    18    37   1
@<TRIPOS>SUBSTRUCTURE
     1  LGB      1

