@<TRIPOS>MOLECULE
3g0w_ligand_037
    37    39
SMALL
GAST_HUCK
****
This file was generated by PARSER (from files_GN.cpp)

@<TRIPOS>ATOM
      1 C1         56.6850    2.0882    4.5502 C.3         1 LGB       0.0449
      2 N2         56.8700    0.9467    5.3835 N.pl3       1 LGB      -0.2354
      3 C3         57.9981    0.9730    6.2135 C.3         1 LGB       0.1199
      4 C4         58.5553    2.4085    6.0766 C.3         1 LGB       0.0850
      5 C5         58.0069    2.8459    4.7084 C.3         1 LGB      -0.0025
      6 C6         55.9259    0.1286    5.8866 C.2         1 LGB       0.2667
      7 O7         56.2595   -0.3349    7.1277 O.3         1 LGB      -0.2358
      8 C8         57.3522    0.5075    7.5423 C.3         1 LGB       0.2188
      9 N9         54.7204   -0.1585    5.3488 N.2         1 LGB      -0.2946
     10 C10        54.2849    0.0636    4.0753 C.ar        1 LGB       0.0001
     11 C11        53.0351    0.6917    3.8194 C.ar        1 LGB      -0.0192
     12 C12        52.6222    0.8997    2.4701 C.ar        1 LGB       0.0660
     13 C13        53.4648    0.4961    1.3995 C.ar        1 LGB       0.0905
     14 C14        54.6984   -0.1317    1.6786 C.ar        1 LGB      -0.0438
     15 C15        55.0840   -0.3788    3.0008 C.ar        1 LGB      -0.0559
     16 C16        52.2330    1.1527    4.9862 C.3         1 LGB      -0.0320
     17 CL17       51.1396    1.6668    2.1153 Cl          1 LGB      -0.0696
     18 O18        59.9835    2.4397    6.0900 O.3         1 LGB      -0.3892
     19 C19        53.1267    0.6672    0.1455 C.1         1 LGB       0.0860
     20 N20        52.8264    0.8141   -0.9536 N.1         1 LGB      -0.3388
     21 C21        58.3139   -0.2362    8.5030 C.3         1 LGB       0.4246
     22 F22        59.3963    0.5503    8.8182 F           1 LGB      -0.1673
     23 F23        58.7721   -1.3957    7.9337 F           1 LGB      -0.1673
     24 F24        57.6669   -0.5660    9.6689 F           1 LGB      -0.1673
     25 H1         55.8536    2.6952    4.9223 H           1 LGB       0.0541
     26 H2         56.5247    1.8394    3.5032 H           1 LGB       0.0541
     27 H3         58.7167    0.2355    5.8363 H           1 LGB       0.0637
     28 H4         58.1661    3.0677    6.8590 H           1 LGB       0.0619
     29 H5         57.8685    3.9266    4.6505 H           1 LGB       0.0312
     30 H6         58.6938    2.5153    3.9246 H           1 LGB       0.0312
     31 H7         56.9252    1.3678    8.0680 H           1 LGB       0.0794
     32 H8         55.3215   -0.4374    0.9242 H           1 LGB       0.0636
     33 H9         55.9715   -0.8662    3.1777 H           1 LGB       0.0538
     34 H10        52.0640    0.3123    5.6622 H           1 LGB       0.0378
     35 H11        51.2567    1.5625    4.7364 H           1 LGB       0.0378
     36 H12        52.7903    1.9324    5.5094 H           1 LGB       0.0378
     37 H13        60.2281    3.3136    5.7145 H           1 LGB       0.2099
@<TRIPOS>BOND
     1     1     2   1
     2     1     5   1
     3     2     3   1
     4     2     6   1
     5     3     4   1
     6     3     8   1
     7     4     5   1
     8     4    18   1
     9     6     7   1
    10     6     9   2
    11     7     8   1
    12     8    21   1
    13     9    10   1
    14    10    11  ar
    15    10    15  ar
    16    11    12  ar
    17    11    16   1
    18    12    13  ar
    19    12    17   1
    20    13    14  ar
    21    13    19   1
    22    14    15  ar
    23    19    20   3
    24    21    22   1
    25    21    23   1
    26    21    24   1
    27     1    25   1
    28     1    26   1
    29     3    27   1
    30     4    28   1
    31     5    29   1
    32     5    30   1
    33     8    31   1
    34    14    32   1
    35    15    33   1
    36    16    34   1
    37    16    35   1
    38    16    36   1
    39    18    37   1
@<TRIPOS>SUBSTRUCTURE
     1  LGB      1

