@<TRIPOS>MOLECULE
3g0w_ligand_063
    37    39
SMALL
GAST_HUCK
****
This file was generated by PARSER (from files_GN.cpp)

@<TRIPOS>ATOM
      1 C1         52.4150    2.8942    5.3973 C.3         1 LGB       0.0449
      2 N2         52.8516    3.1973    4.0656 N.pl3       1 LGB      -0.2354
      3 C3         52.9129    4.5895    3.8664 C.3         1 LGB       0.1199
      4 C4         52.0213    5.2440    4.9551 C.3         1 LGB       0.0850
      5 C5         51.4628    4.0476    5.7565 C.3         1 LGB      -0.0025
      6 C6         53.9930    2.6514    3.6009 C.2         1 LGB       0.2667
      7 O7         55.0360    3.5271    3.6192 O.3         1 LGB      -0.2358
      8 C8         54.4523    4.8015    3.9511 C.3         1 LGB       0.2188
      9 N9         54.0832    1.7554    2.5932 N.2         1 LGB      -0.2946
     10 C10        53.4991    0.9364    1.6747 C.ar        1 LGB       0.0001
     11 C11        52.1107    0.8330    1.3955 C.ar        1 LGB      -0.0192
     12 C12        51.6862    0.3669    0.1185 C.ar        1 LGB       0.0660
     13 C13        52.6374   -0.1416   -0.8009 C.ar        1 LGB       0.0905
     14 C14        53.9944   -0.2102   -0.4298 C.ar        1 LGB      -0.0438
     15 C15        54.4174    0.3392    0.7925 C.ar        1 LGB      -0.0559
     16 C16        51.1024    1.1382    2.4344 C.3         1 LGB      -0.0320
     17 CL17       50.0391    0.4311   -0.3140 Cl          1 LGB      -0.0696
     18 O18        50.9671    6.0183    4.3712 O.3         1 LGB      -0.3892
     19 C19        52.2967   -0.5818   -1.9848 C.1         1 LGB       0.0860
     20 N20        51.9902   -0.9567   -3.0267 N.1         1 LGB      -0.3388
     21 C21        55.0080    5.9316    3.0456 C.3         1 LGB       0.4246
     22 F22        54.7422    5.6858    1.7143 F           1 LGB      -0.1673
     23 F23        56.3770    6.0216    3.1844 F           1 LGB      -0.1673
     24 F24        54.4535    7.1389    3.4004 F           1 LGB      -0.1673
     25 H1         51.9116    1.9312    5.4725 H           1 LGB       0.0541
     26 H2         53.2583    2.8947    6.0946 H           1 LGB       0.0541
     27 H3         52.5309    4.8155    2.8659 H           1 LGB       0.0637
     28 H4         52.6119    5.9073    5.6002 H           1 LGB       0.0619
     29 H5         51.4641    4.2344    6.8348 H           1 LGB       0.0312
     30 H6         50.4419    3.8074    5.4435 H           1 LGB       0.0312
     31 H7         54.7395    5.0250    4.9829 H           1 LGB       0.0794
     32 H8         54.6898   -0.6042   -1.0695 H           1 LGB       0.0636
     33 H9         55.4199    0.3543    0.9961 H           1 LGB       0.0538
     34 H10        51.5517    1.1737    3.4159 H           1 LGB       0.0378
     35 H11        50.3669    0.3329    2.4960 H           1 LGB       0.0378
     36 H12        50.5935    2.0819    2.2155 H           1 LGB       0.0378
     37 H13        50.4370    6.3515    5.1282 H           1 LGB       0.2099
@<TRIPOS>BOND
     1     1     2   1
     2     1     5   1
     3     2     3   1
     4     2     6   1
     5     3     4   1
     6     3     8   1
     7     4     5   1
     8     4    18   1
     9     6     7   1
    10     6     9   2
    11     7     8   1
    12     8    21   1
    13     9    10   1
    14    10    11  ar
    15    10    15  ar
    16    11    12  ar
    17    11    16   1
    18    12    13  ar
    19    12    17   1
    20    13    14  ar
    21    13    19   1
    22    14    15  ar
    23    19    20   3
    24    21    22   1
    25    21    23   1
    26    21    24   1
    27     1    25   1
    28     1    26   1
    29     3    27   1
    30     4    28   1
    31     5    29   1
    32     5    30   1
    33     8    31   1
    34    14    32   1
    35    15    33   1
    36    16    34   1
    37    16    35   1
    38    16    36   1
    39    18    37   1
@<TRIPOS>SUBSTRUCTURE
     1  LGB      1

