@<TRIPOS>MOLECULE
3g0w_ligand_022
    37    39
SMALL
GAST_HUCK
****
This file was generated by PARSER (from files_GN.cpp)

@<TRIPOS>ATOM
      1 C1         53.0514    3.6137    5.3542 C.3         1 LGB       0.0449
      2 N2         52.8328    2.5160    4.4785 N.pl3       1 LGB      -0.2354
      3 C3         51.7702    2.6485    3.5785 C.3         1 LGB       0.1199
      4 C4         51.6001    4.1802    3.4979 C.3         1 LGB       0.0850
      5 C5         51.9725    4.6297    4.9264 C.3         1 LGB      -0.0025
      6 C6         53.6911    1.5597    4.0924 C.2         1 LGB       0.2667
      7 O7         53.2859    0.9503    2.9487 O.3         1 LGB      -0.2358
      8 C8         52.3222    1.8453    2.3732 C.3         1 LGB       0.2188
      9 N9         54.8453    1.2864    4.7405 N.2         1 LGB      -0.2946
     10 C10        55.8813    0.4145    4.5558 C.ar        1 LGB       0.0001
     11 C11        56.9743    0.4256    5.4714 C.ar        1 LGB      -0.0192
     12 C12        58.0789   -0.4517    5.2509 C.ar        1 LGB       0.0660
     13 C13        58.0580   -1.3687    4.1664 C.ar        1 LGB       0.0905
     14 C14        56.9645   -1.3784    3.2833 C.ar        1 LGB      -0.0438
     15 C15        55.9000   -0.4907    3.4704 C.ar        1 LGB      -0.0559
     16 C16        56.9774    1.3291    6.6645 C.3         1 LGB      -0.0320
     17 CL17       59.4454   -0.3933    6.2725 Cl          1 LGB      -0.0696
     18 O18        50.2772    4.5627    3.1308 O.3         1 LGB      -0.3892
     19 C19        59.0064   -2.2373    3.9397 C.1         1 LGB       0.0860
     20 N20        59.8215   -3.0165    3.7239 N.1         1 LGB      -0.3388
     21 C21        51.2777    1.0258    1.5764 C.3         1 LGB       0.4246
     22 F22        50.2465    1.8224    1.1483 F           1 LGB      -0.1673
     23 F23        50.7546    0.0126    2.3428 F           1 LGB      -0.1673
     24 F24        51.8642    0.4585    0.4715 F           1 LGB      -0.1673
     25 H1         54.0497    4.0349    5.1997 H           1 LGB       0.0541
     26 H2         52.9277    3.3123    6.3950 H           1 LGB       0.0541
     27 H3         50.8821    2.1746    4.0123 H           1 LGB       0.0637
     28 H4         52.3117    4.6109    2.7881 H           1 LGB       0.0619
     29 H5         52.3460    5.6563    4.9446 H           1 LGB       0.0312
     30 H6         51.1022    4.5526    5.5860 H           1 LGB       0.0312
     31 H7         52.8517    2.5162    1.6869 H           1 LGB       0.0794
     32 H8         56.9257   -2.0269    2.4878 H           1 LGB       0.0636
     33 H9         55.1402   -0.5321    2.7960 H           1 LGB       0.0538
     34 H10        56.0773    1.9355    6.7639 H           1 LGB       0.0378
     35 H11        57.8268    2.0119    6.6099 H           1 LGB       0.0378
     36 H12        57.0619    0.7312    7.5737 H           1 LGB       0.0378
     37 H13        50.3117    5.5372    3.0281 H           1 LGB       0.2099
@<TRIPOS>BOND
     1     1     2   1
     2     1     5   1
     3     2     3   1
     4     2     6   1
     5     3     4   1
     6     3     8   1
     7     4     5   1
     8     4    18   1
     9     6     7   1
    10     6     9   2
    11     7     8   1
    12     8    21   1
    13     9    10   1
    14    10    11  ar
    15    10    15  ar
    16    11    12  ar
    17    11    16   1
    18    12    13  ar
    19    12    17   1
    20    13    14  ar
    21    13    19   1
    22    14    15  ar
    23    19    20   3
    24    21    22   1
    25    21    23   1
    26    21    24   1
    27     1    25   1
    28     1    26   1
    29     3    27   1
    30     4    28   1
    31     5    29   1
    32     5    30   1
    33     8    31   1
    34    14    32   1
    35    15    33   1
    36    16    34   1
    37    16    35   1
    38    16    36   1
    39    18    37   1
@<TRIPOS>SUBSTRUCTURE
     1  LGB      1

