@<TRIPOS>MOLECULE
3g0w_ligand_058
    37    39
SMALL
GAST_HUCK
****
This file was generated by PARSER (from files_GN.cpp)

@<TRIPOS>ATOM
      1 C1         52.9225    6.8728    5.1997 C.3         1 LGB       0.0449
      2 N2         53.4439    5.8157    4.3878 N.pl3       1 LGB      -0.2354
      3 C3         53.9190    6.3138    3.1596 C.3         1 LGB       0.1199
      4 C4         53.3580    7.7532    3.0226 C.3         1 LGB       0.0850
      5 C5         52.3677    7.8673    4.1873 C.3         1 LGB      -0.0025
      6 C6         54.3702    4.9785    4.8850 C.2         1 LGB       0.2667
      7 O7         55.6231    5.3839    4.5513 O.3         1 LGB      -0.2358
      8 C8         55.4548    6.1371    3.3328 C.3         1 LGB       0.2188
      9 N9         54.2611    3.6333    4.8222 N.2         1 LGB      -0.2946
     10 C10        53.3542    2.6851    4.4579 C.ar        1 LGB       0.0001
     11 C11        51.9581    2.8588    4.2473 C.ar        1 LGB      -0.0192
     12 C12        51.2774    1.9518    3.3848 C.ar        1 LGB       0.0660
     13 C13        51.9396    0.7999    2.8886 C.ar        1 LGB       0.0905
     14 C14        53.2671    0.5461    3.2739 C.ar        1 LGB      -0.0438
     15 C15        53.9671    1.4907    4.0351 C.ar        1 LGB      -0.0559
     16 C16        51.1801    3.8796    4.9935 C.3         1 LGB      -0.0320
     17 CL17       49.6779    2.2918    2.9042 Cl          1 LGB      -0.0696
     18 O18        52.6885    7.9566    1.7828 O.3         1 LGB      -0.3892
     19 C19        51.3742   -0.0422    2.0626 C.1         1 LGB       0.0860
     20 N20        50.8865   -0.7840    1.3327 N.1         1 LGB      -0.3388
     21 C21        56.1554    5.4400    2.1315 C.3         1 LGB       0.4246
     22 F22        55.7641    5.9612    0.9224 F           1 LGB      -0.1673
     23 F23        55.8933    4.0919    2.1237 F           1 LGB      -0.1673
     24 F24        57.5128    5.6100    2.2076 F           1 LGB      -0.1673
     25 H1         53.7181    7.3646    5.7755 H           1 LGB       0.0541
     26 H2         52.1277    6.5550    5.8762 H           1 LGB       0.0541
     27 H3         53.5277    5.6742    2.3619 H           1 LGB       0.0637
     28 H4         54.1392    8.5081    3.1363 H           1 LGB       0.0619
     29 H5         52.3413    8.8791    4.6041 H           1 LGB       0.0312
     30 H6         51.3629    7.5590    3.8758 H           1 LGB       0.0312
     31 H7         55.9341    7.1028    3.5047 H           1 LGB       0.0794
     32 H8         53.7669   -0.2865    2.9469 H           1 LGB       0.0636
     33 H9         54.9655    1.3301    4.2096 H           1 LGB       0.0538
     34 H10        50.8372    4.6657    4.3213 H           1 LGB       0.0378
     35 H11        51.7610    4.3232    5.7985 H           1 LGB       0.0378
     36 H12        50.3114    3.4078    5.4618 H           1 LGB       0.0378
     37 H13        53.3855    7.8670    1.1014 H           1 LGB       0.2099
@<TRIPOS>BOND
     1     1     2   1
     2     1     5   1
     3     2     3   1
     4     2     6   1
     5     3     4   1
     6     3     8   1
     7     4     5   1
     8     4    18   1
     9     6     7   1
    10     6     9   2
    11     7     8   1
    12     8    21   1
    13     9    10   1
    14    10    11  ar
    15    10    15  ar
    16    11    12  ar
    17    11    16   1
    18    12    13  ar
    19    12    17   1
    20    13    14  ar
    21    13    19   1
    22    14    15  ar
    23    19    20   3
    24    21    22   1
    25    21    23   1
    26    21    24   1
    27     1    25   1
    28     1    26   1
    29     3    27   1
    30     4    28   1
    31     5    29   1
    32     5    30   1
    33     8    31   1
    34    14    32   1
    35    15    33   1
    36    16    34   1
    37    16    35   1
    38    16    36   1
    39    18    37   1
@<TRIPOS>SUBSTRUCTURE
     1  LGB      1

