@<TRIPOS>MOLECULE
3g0w_ligand_062
    37    39
SMALL
GAST_HUCK
****
This file was generated by PARSER (from files_GN.cpp)

@<TRIPOS>ATOM
      1 C1         53.4213    2.5330    4.3558 C.3         1 LGB       0.0449
      2 N2         53.8255    1.2013    4.6210 N.pl3       1 LGB      -0.2354
      3 C3         52.9669    0.2025    4.1373 C.3         1 LGB       0.1199
      4 C4         52.1112    0.9255    3.0594 C.3         1 LGB       0.0850
      5 C5         52.6870    2.3567    3.0155 C.3         1 LGB      -0.0025
      6 C6         55.0732    0.7416    4.7876 C.2         1 LGB       0.2667
      7 O7         55.2265   -0.5297    4.3605 O.3         1 LGB      -0.2358
      8 C8         54.0025   -0.8734    3.7016 C.3         1 LGB       0.2188
      9 N9         56.0756    1.5102    5.2416 N.2         1 LGB      -0.2946
     10 C10        57.4085    1.3679    5.4767 C.ar        1 LGB       0.0001
     11 C11        58.1500    2.5198    5.8507 C.ar        1 LGB      -0.0192
     12 C12        59.5662    2.4324    5.9603 C.ar        1 LGB       0.0660
     13 C13        60.2239    1.1915    5.7707 C.ar        1 LGB       0.0905
     14 C14        59.4623    0.0426    5.4915 C.ar        1 LGB      -0.0438
     15 C15        58.0717    0.1339    5.3275 C.ar        1 LGB      -0.0559
     16 C16        57.4597    3.8162    6.0974 C.3         1 LGB      -0.0320
     17 CL17       60.4797    3.8310    6.2885 Cl          1 LGB      -0.0696
     18 O18        50.7271    1.0068    3.4012 O.3         1 LGB      -0.3892
     19 C19        61.5280    1.0744    5.8186 C.1         1 LGB       0.0860
     20 N20        62.6636    0.9759    5.8352 N.1         1 LGB      -0.3388
     21 C21        53.6740   -2.3387    4.0762 C.3         1 LGB       0.4246
     22 F22        52.5459   -2.7844    3.4443 F           1 LGB      -0.1673
     23 F23        53.4813   -2.4593    5.4241 F           1 LGB      -0.1673
     24 F24        54.7046   -3.1765    3.7306 F           1 LGB      -0.1673
     25 H1         54.2506    3.2347    4.2498 H           1 LGB       0.0541
     26 H2         52.7484    2.8825    5.1428 H           1 LGB       0.0541
     27 H3         52.3507   -0.1398    4.9729 H           1 LGB       0.0637
     28 H4         52.1943    0.4502    2.0784 H           1 LGB       0.0619
     29 H5         53.4000    2.4268    2.1893 H           1 LGB       0.0312
     30 H6         51.9182    3.1212    2.8820 H           1 LGB       0.0312
     31 H7         54.1902   -0.8058    2.6272 H           1 LGB       0.0794
     32 H8         59.9060   -0.8704    5.3603 H           1 LGB       0.0636
     33 H9         57.5612   -0.7177    5.0926 H           1 LGB       0.0538
     34 H10        56.3731    3.7722    6.0680 H           1 LGB       0.0378
     35 H11        57.7717    4.5201    5.3318 H           1 LGB       0.0378
     36 H12        57.7309    4.1953    7.0820 H           1 LGB       0.0378
     37 H13        50.3410    0.1337    3.1840 H           1 LGB       0.2099
@<TRIPOS>BOND
     1     1     2   1
     2     1     5   1
     3     2     3   1
     4     2     6   1
     5     3     4   1
     6     3     8   1
     7     4     5   1
     8     4    18   1
     9     6     7   1
    10     6     9   2
    11     7     8   1
    12     8    21   1
    13     9    10   1
    14    10    11  ar
    15    10    15  ar
    16    11    12  ar
    17    11    16   1
    18    12    13  ar
    19    12    17   1
    20    13    14  ar
    21    13    19   1
    22    14    15  ar
    23    19    20   3
    24    21    22   1
    25    21    23   1
    26    21    24   1
    27     1    25   1
    28     1    26   1
    29     3    27   1
    30     4    28   1
    31     5    29   1
    32     5    30   1
    33     8    31   1
    34    14    32   1
    35    15    33   1
    36    16    34   1
    37    16    35   1
    38    16    36   1
    39    18    37   1
@<TRIPOS>SUBSTRUCTURE
     1  LGB      1

