@<TRIPOS>MOLECULE
3g0w_ligand_036
    37    39
SMALL
GAST_HUCK
****
This file was generated by PARSER (from files_GN.cpp)

@<TRIPOS>ATOM
      1 C1         54.6198    4.2340    3.9379 C.3         1 LGB       0.0449
      2 N2         53.9465    3.0093    4.2616 N.pl3       1 LGB      -0.2354
      3 C3         52.5753    3.0193    3.9394 C.3         1 LGB       0.1199
      4 C4         52.2613    4.4457    3.4486 C.3         1 LGB       0.0850
      5 C5         53.6378    4.9765    3.0097 C.3         1 LGB      -0.0025
      6 C6         54.4304    1.7544    4.1078 C.2         1 LGB       0.2667
      7 O7         53.5082    0.9368    3.5186 O.3         1 LGB      -0.2358
      8 C8         52.5755    1.8539    2.9258 C.3         1 LGB       0.2188
      9 N9         55.6254    1.2128    4.4249 N.2         1 LGB      -0.2946
     10 C10        56.8838    1.1530    4.9432 C.ar        1 LGB       0.0001
     11 C11        57.5017    2.1394    5.7613 C.ar        1 LGB      -0.0192
     12 C12        58.8606    1.9789    6.1477 C.ar        1 LGB       0.0660
     13 C13        59.5501    0.7813    5.8280 C.ar        1 LGB       0.0905
     14 C14        58.8973   -0.2256    5.0910 C.ar        1 LGB      -0.0438
     15 C15        57.5854   -0.0298    4.6402 C.ar        1 LGB      -0.0559
     16 C16        56.7304    3.3262    6.1951 C.3         1 LGB      -0.0320
     17 CL17       59.6902    3.2443    6.9341 Cl          1 LGB      -0.0696
     18 O18        51.7167    5.2481    4.4977 O.3         1 LGB      -0.3892
     19 C19        60.7806    0.5727    6.2050 C.1         1 LGB       0.0860
     20 N20        61.8637    0.3966    6.5405 N.1         1 LGB      -0.3388
     21 C21        51.2031    1.2023    2.6340 C.3         1 LGB       0.4246
     22 F22        50.3906    2.1030    1.9972 F           1 LGB      -0.1673
     23 F23        50.5869    0.7802    3.7803 F           1 LGB      -0.1673
     24 F24        51.3526    0.1203    1.8018 F           1 LGB      -0.1673
     25 H1         54.7566    4.8231    4.8517 H           1 LGB       0.0541
     26 H2         55.5781    4.0771    3.4326 H           1 LGB       0.0541
     27 H3         51.9780    2.7721    4.8223 H           1 LGB       0.0637
     28 H4         51.5462    4.4362    2.6272 H           1 LGB       0.0619
     29 H5         53.8257    4.7041    1.9669 H           1 LGB       0.0312
     30 H6         53.7198    6.0653    3.1091 H           1 LGB       0.0312
     31 H7         52.9879    2.1918    1.9670 H           1 LGB       0.0794
     32 H8         59.3716   -1.1038    4.8569 H           1 LGB       0.0636
     33 H9         57.1444   -0.7664    4.0834 H           1 LGB       0.0538
     34 H10        56.8631    4.0961    5.4308 H           1 LGB       0.0378
     35 H11        57.0658    3.7404    7.1489 H           1 LGB       0.0378
     36 H12        55.6755    3.0712    6.3272 H           1 LGB       0.0378
     37 H13        52.3616    5.1956    5.2338 H           1 LGB       0.2099
@<TRIPOS>BOND
     1     1     2   1
     2     1     5   1
     3     2     3   1
     4     2     6   1
     5     3     4   1
     6     3     8   1
     7     4     5   1
     8     4    18   1
     9     6     7   1
    10     6     9   2
    11     7     8   1
    12     8    21   1
    13     9    10   1
    14    10    11  ar
    15    10    15  ar
    16    11    12  ar
    17    11    16   1
    18    12    13  ar
    19    12    17   1
    20    13    14  ar
    21    13    19   1
    22    14    15  ar
    23    19    20   3
    24    21    22   1
    25    21    23   1
    26    21    24   1
    27     1    25   1
    28     1    26   1
    29     3    27   1
    30     4    28   1
    31     5    29   1
    32     5    30   1
    33     8    31   1
    34    14    32   1
    35    15    33   1
    36    16    34   1
    37    16    35   1
    38    16    36   1
    39    18    37   1
@<TRIPOS>SUBSTRUCTURE
     1  LGB      1

