@<TRIPOS>MOLECULE
3g2n_ligand_009
    37    38
SMALL
GAST_HUCK
****
This file was generated by PARSER (from files_GN.cpp)

@<TRIPOS>ATOM
      1 C9         37.5241   23.9726   24.0841 C.ar        1 OAK      -0.0419
      2 C10        38.4545   24.3220   23.0896 C.ar        1 OAK      -0.0562
      3 C11        38.6840   25.6818   22.7850 C.ar        1 OAK      -0.0575
      4 C12        37.9377   26.6811   23.4341 C.ar        1 OAK      -0.0562
      5 C13        36.9836   26.3361   24.4102 C.ar        1 OAK      -0.0419
      6 C8         36.7959   24.9786   24.7583 C.ar        1 OAK       0.0499
      7 C7         35.7797   24.6340   25.6151 C.2         1 OAK       0.2069
      8 O7         36.0357   24.3340   26.7751 O.2         1 OAK      -0.3846
      9 N1         34.5613   24.6006   25.1059 N.am        1 OAK      -0.2577
     10 C1         33.3175   24.3891   25.7670 C.3         1 OAK       0.1716
     11 O5         33.3070   24.8407   27.1397 O.3         1 OAK      -0.3437
     12 C5         31.9924   24.8318   27.7477 C.3         1 OAK       0.1127
     13 C6         32.1413   25.4070   29.1736 C.3         1 OAK       0.0730
     14 O6         30.8726   25.6475   29.7624 O.3         1 OAK      -0.3924
     15 C4         31.3472   23.4117   27.6988 C.3         1 OAK       0.1119
     16 O4         29.9830   23.4660   28.1089 O.3         1 OAK      -0.3865
     17 C3         31.4175   22.8069   26.2662 C.3         1 OAK       0.1138
     18 O3         30.9921   21.4423   26.2706 O.3         1 OAK      -0.3864
     19 C2         32.8454   22.9151   25.6715 C.3         1 OAK       0.1307
     20 O2         32.8566   22.4437   24.3236 O.3         1 OAK      -0.3844
     21 H1         37.3498   22.9845   24.2792 H           1 OAK       0.0669
     22 H2         38.9599   23.5951   22.5789 H           1 OAK       0.0629
     23 H3         39.3586   25.9382   22.0503 H           1 OAK       0.0653
     24 H4         38.0327   27.6590   23.1534 H           1 OAK       0.0629
     25 H5         36.4332   27.0763   24.8562 H           1 OAK       0.0669
     26 H6         34.4916   24.8349   24.1670 H           1 OAK       0.1871
     27 H7         32.6069   25.0028   25.2125 H           1 OAK       0.0896
     28 H8         31.3661   25.5246   27.1871 H           1 OAK       0.0647
     29 H9         32.6748   26.3593   29.1300 H           1 OAK       0.0584
     30 H10        32.7108   24.7314   29.8138 H           1 OAK       0.0584
     31 H11        31.0508   26.2272   30.5377 H           1 OAK       0.2095
     32 H12        31.8835   22.7469   28.3788 H           1 OAK       0.0647
     33 H13        29.5362   24.0739   27.4748 H           1 OAK       0.2100
     34 H14        30.7309   23.3488   25.6103 H           1 OAK       0.0647
     35 H15        30.0502   21.4500   26.5600 H           1 OAK       0.2100
     36 H16        33.5256   22.2732   26.2367 H           1 OAK       0.0668
     37 H17        32.8089   23.2381   23.7487 H           1 OAK       0.2101
@<TRIPOS>BOND
     1     1     2  ar
     2     1     6  ar
     3     2     3  ar
     4     3     4  ar
     5     4     5  ar
     6     5     6  ar
     7     6     7   1
     8     7     8   2
     9     7     9  am
    10     9    10   1
    11    10    11   1
    12    10    19   1
    13    11    12   1
    14    12    13   1
    15    12    15   1
    16    13    14   1
    17    15    16   1
    18    15    17   1
    19    17    18   1
    20    17    19   1
    21    19    20   1
    22     1    21   1
    23     2    22   1
    24     3    23   1
    25     4    24   1
    26     5    25   1
    27     9    26   1
    28    10    27   1
    29    12    28   1
    30    13    29   1
    31    13    30   1
    32    14    31   1
    33    15    32   1
    34    16    33   1
    35    17    34   1
    36    18    35   1
    37    19    36   1
    38    20    37   1
@<TRIPOS>SUBSTRUCTURE
     1  OAK      1

