@<TRIPOS>MOLECULE
3g2n_ligand_008
    37    38
SMALL
GAST_HUCK
****
This file was generated by PARSER (from files_GN.cpp)

@<TRIPOS>ATOM
      1 C9         36.6525   26.8338   24.4414 C.ar        1 OAK      -0.0419
      2 C10        37.3977   27.5197   23.4604 C.ar        1 OAK      -0.0562
      3 C11        38.3122   26.8093   22.6572 C.ar        1 OAK      -0.0575
      4 C12        38.4625   25.4237   22.8252 C.ar        1 OAK      -0.0562
      5 C13        37.7056   24.7393   23.7955 C.ar        1 OAK      -0.0419
      6 C8         36.7814   25.4426   24.6073 C.ar        1 OAK       0.0499
      7 C7         36.0317   24.7611   25.5320 C.2         1 OAK       0.2069
      8 O7         36.5787   24.4179   26.5762 O.2         1 OAK      -0.3846
      9 N1         34.7378   24.5663   25.3020 N.am        1 OAK      -0.2577
     10 C1         33.8144   23.8374   26.1137 C.3         1 OAK       0.1716
     11 O5         34.1468   23.9627   27.5061 O.3         1 OAK      -0.3437
     12 C5         33.3465   23.2306   28.4617 C.3         1 OAK       0.1127
     13 C6         33.9167   23.5750   29.8681 C.3         1 OAK       0.0730
     14 O6         32.8703   23.8639   30.7832 O.3         1 OAK      -0.3924
     15 C4         33.3554   21.7120   28.0958 C.3         1 OAK       0.1119
     16 O4         32.5683   20.9167   28.9783 O.3         1 OAK      -0.3865
     17 C3         32.8713   21.5249   26.6332 C.3         1 OAK       0.1138
     18 O3         32.9233   20.1432   26.2725 O.3         1 OAK      -0.3864
     19 C2         33.7246   22.3587   25.6375 C.3         1 OAK       0.1307
     20 O2         33.1395   22.2503   24.3433 O.3         1 OAK      -0.3844
     21 H1         36.0345   27.3749   25.0528 H           1 OAK       0.0669
     22 H2         37.2841   28.5282   23.3388 H           1 OAK       0.0629
     23 H3         38.8531   27.3014   21.9404 H           1 OAK       0.0653
     24 H4         39.1158   24.9055   22.2259 H           1 OAK       0.0629
     25 H5         37.8315   23.7276   23.8992 H           1 OAK       0.0669
     26 H6         34.3843   24.8743   24.4512 H           1 OAK       0.1871
     27 H7         32.8418   24.3046   25.9653 H           1 OAK       0.0896
     28 H8         32.3300   23.6104   28.4021 H           1 OAK       0.0647
     29 H9         34.5675   24.4611   29.8158 H           1 OAK       0.0584
     30 H10        34.5227   22.7535   30.2676 H           1 OAK       0.0584
     31 H11        33.1822   24.6358   31.3141 H           1 OAK       0.2095
     32 H12        34.3905   21.3479   28.1779 H           1 OAK       0.0647
     33 H13        31.6884   20.8183   28.5476 H           1 OAK       0.2100
     34 H14        31.8274   21.8484   26.5609 H           1 OAK       0.0647
     35 H15        32.1410   19.7398   26.7015 H           1 OAK       0.2100
     36 H16        34.7354   21.9318   25.5908 H           1 OAK       0.0668
     37 H17        32.9694   23.1644   24.0247 H           1 OAK       0.2101
@<TRIPOS>BOND
     1     1     2  ar
     2     1     6  ar
     3     2     3  ar
     4     3     4  ar
     5     4     5  ar
     6     5     6  ar
     7     6     7   1
     8     7     8   2
     9     7     9  am
    10     9    10   1
    11    10    11   1
    12    10    19   1
    13    11    12   1
    14    12    13   1
    15    12    15   1
    16    13    14   1
    17    15    16   1
    18    15    17   1
    19    17    18   1
    20    17    19   1
    21    19    20   1
    22     1    21   1
    23     2    22   1
    24     3    23   1
    25     4    24   1
    26     5    25   1
    27     9    26   1
    28    10    27   1
    29    12    28   1
    30    13    29   1
    31    13    30   1
    32    14    31   1
    33    15    32   1
    34    16    33   1
    35    17    34   1
    36    18    35   1
    37    19    36   1
    38    20    37   1
@<TRIPOS>SUBSTRUCTURE
     1  OAK      1

