@<TRIPOS>MOLECULE
3g2n_ligand_004
    37    38
SMALL
GAST_HUCK
****
This file was generated by PARSER (from files_GN.cpp)

@<TRIPOS>ATOM
      1 C9         33.9533   24.0037   32.3312 C.ar        1 OAK      -0.0419
      2 C10        34.2224   24.2239   33.6957 C.ar        1 OAK      -0.0562
      3 C11        35.5497   24.3518   34.1368 C.ar        1 OAK      -0.0575
      4 C12        36.6092   24.2596   33.2164 C.ar        1 OAK      -0.0562
      5 C13        36.3474   24.0091   31.8555 C.ar        1 OAK      -0.0419
      6 C8         35.0099   23.8808   31.3956 C.ar        1 OAK       0.0499
      7 C7         34.7277   23.6524   30.0749 C.2         1 OAK       0.2069
      8 O7         34.4048   24.6253   29.3834 O.2         1 OAK      -0.3846
      9 N1         34.7773   22.4144   29.5754 N.am        1 OAK      -0.2577
     10 C1         34.5002   22.0041   28.2303 C.3         1 OAK       0.1716
     11 O5         34.8265   23.0658   27.3043 O.3         1 OAK      -0.3437
     12 C5         34.5235   22.8550   25.9105 C.3         1 OAK       0.1127
     13 C6         34.9751   24.1269   25.1449 C.3         1 OAK       0.0730
     14 O6         36.2166   23.9178   24.4812 O.3         1 OAK      -0.3924
     15 C4         33.0175   22.5030   25.7379 C.3         1 OAK       0.1119
     16 O4         32.7298   22.2369   24.3631 O.3         1 OAK      -0.3865
     17 C3         32.6489   21.2724   26.6003 C.3         1 OAK       0.1138
     18 O3         31.2475   20.9931   26.4839 O.3         1 OAK      -0.3864
     19 C2         33.0211   21.5127   28.0874 C.3         1 OAK       0.1307
     20 O2         32.8176   20.3181   28.8458 O.3         1 OAK      -0.3844
     21 H1         32.9786   23.9151   32.0278 H           1 OAK       0.0669
     22 H2         33.4510   24.3038   34.3629 H           1 OAK       0.0629
     23 H3         35.7456   24.5287   35.1246 H           1 OAK       0.0653
     24 H4         37.5785   24.3730   33.5359 H           1 OAK       0.0629
     25 H5         37.1252   23.9397   31.1968 H           1 OAK       0.0669
     26 H6         34.9885   21.7071   30.2059 H           1 OAK       0.1871
     27 H7         35.1626   21.1639   28.0091 H           1 OAK       0.0896
     28 H8         35.0956   21.9959   25.5522 H           1 OAK       0.0647
     29 H9         35.0808   24.9822   25.8039 H           1 OAK       0.0584
     30 H10        34.2615   24.4080   24.3733 H           1 OAK       0.0584
     31 H11        36.8189   23.5586   25.1764 H           1 OAK       0.2095
     32 H12        32.4041   23.3462   26.0556 H           1 OAK       0.0647
     33 H13        32.6307   23.1203   23.9498 H           1 OAK       0.2100
     34 H14        33.1917   20.3924   26.2354 H           1 OAK       0.0647
     35 H15        31.0968   20.1682   26.9967 H           1 OAK       0.2100
     36 H16        32.3520   22.2778   28.4882 H           1 OAK       0.0668
     37 H17        33.6375   19.7801   28.7341 H           1 OAK       0.2101
@<TRIPOS>BOND
     1     1     2  ar
     2     1     6  ar
     3     2     3  ar
     4     3     4  ar
     5     4     5  ar
     6     5     6  ar
     7     6     7   1
     8     7     8   2
     9     7     9  am
    10     9    10   1
    11    10    11   1
    12    10    19   1
    13    11    12   1
    14    12    13   1
    15    12    15   1
    16    13    14   1
    17    15    16   1
    18    15    17   1
    19    17    18   1
    20    17    19   1
    21    19    20   1
    22     1    21   1
    23     2    22   1
    24     3    23   1
    25     4    24   1
    26     5    25   1
    27     9    26   1
    28    10    27   1
    29    12    28   1
    30    13    29   1
    31    13    30   1
    32    14    31   1
    33    15    32   1
    34    16    33   1
    35    17    34   1
    36    18    35   1
    37    19    36   1
    38    20    37   1
@<TRIPOS>SUBSTRUCTURE
     1  OAK      1

