@<TRIPOS>MOLECULE
3g2n_ligand_001
    37    38
SMALL
GAST_HUCK
****
This file was generated by PARSER (from files_GN.cpp)

@<TRIPOS>ATOM
      1 C9         34.5266   24.0276   33.4573 C.ar        1 OAK      -0.0419
      2 C10        35.5463   24.3338   34.3800 C.ar        1 OAK      -0.0562
      3 C11        36.5786   25.2171   34.0232 C.ar        1 OAK      -0.0575
      4 C12        36.5922   25.7931   32.7403 C.ar        1 OAK      -0.0562
      5 C13        35.5793   25.4810   31.8167 C.ar        1 OAK      -0.0419
      6 C8         34.5216   24.5914   32.1531 C.ar        1 OAK       0.0499
      7 C7         33.5114   24.2885   31.2393 C.2         1 OAK       0.2069
      8 O7         32.3623   24.1412   31.6499 O.2         1 OAK      -0.3846
      9 N1         33.7578   24.1536   29.9388 N.am        1 OAK      -0.2577
     10 C1         32.8129   23.8658   28.9005 C.3         1 OAK       0.1716
     11 O5         33.5697   23.4251   27.7525 O.3         1 OAK      -0.3437
     12 C5         32.7904   23.0402   26.5970 C.3         1 OAK       0.1127
     13 C6         33.7855   22.5556   25.5114 C.3         1 OAK       0.0730
     14 O6         33.1586   22.3482   24.2457 O.3         1 OAK      -0.3924
     15 C4         31.9007   24.2289   26.1256 C.3         1 OAK       0.1119
     16 O4         31.0052   23.8395   25.0805 O.3         1 OAK      -0.3865
     17 C3         31.0722   24.8005   27.3093 C.3         1 OAK       0.1138
     18 O3         30.4059   25.9987   26.9198 O.3         1 OAK      -0.3864
     19 C2         31.9660   25.1149   28.5329 C.3         1 OAK       0.1307
     20 O2         31.1217   25.5211   29.6078 O.3         1 OAK      -0.3844
     21 H1         33.7975   23.3725   33.7469 H           1 OAK       0.0669
     22 H2         35.5367   23.9109   35.3141 H           1 OAK       0.0629
     23 H3         37.3200   25.4388   34.6958 H           1 OAK       0.0653
     24 H4         37.3406   26.4427   32.4842 H           1 OAK       0.0629
     25 H5         35.6129   25.9347   30.9024 H           1 OAK       0.0669
     26 H6         34.6850   24.2105   29.6584 H           1 OAK       0.1871
     27 H7         32.1583   23.0446   29.2153 H           1 OAK       0.0896
     28 H8         32.1476   22.1958   26.8593 H           1 OAK       0.0647
     29 H9         34.2225   21.6033   25.8240 H           1 OAK       0.0584
     30 H10        34.5982   23.2767   25.3859 H           1 OAK       0.0584
     31 H11        33.0036   23.2456   23.8893 H           1 OAK       0.2095
     32 H12        32.5430   25.0261   25.7407 H           1 OAK       0.0647
     33 H13        30.5081   23.0689   25.4319 H           1 OAK       0.2100
     34 H14        30.3089   24.0670   27.6037 H           1 OAK       0.0647
     35 H15        29.4680   25.7419   26.8035 H           1 OAK       0.2100
     36 H16        32.6311   25.9464   28.2777 H           1 OAK       0.0668
     37 H17        31.4492   26.3983   29.9006 H           1 OAK       0.2101
@<TRIPOS>BOND
     1     1     2  ar
     2     1     6  ar
     3     2     3  ar
     4     3     4  ar
     5     4     5  ar
     6     5     6  ar
     7     6     7   1
     8     7     8   2
     9     7     9  am
    10     9    10   1
    11    10    11   1
    12    10    19   1
    13    11    12   1
    14    12    13   1
    15    12    15   1
    16    13    14   1
    17    15    16   1
    18    15    17   1
    19    17    18   1
    20    17    19   1
    21    19    20   1
    22     1    21   1
    23     2    22   1
    24     3    23   1
    25     4    24   1
    26     5    25   1
    27     9    26   1
    28    10    27   1
    29    12    28   1
    30    13    29   1
    31    13    30   1
    32    14    31   1
    33    15    32   1
    34    16    33   1
    35    17    34   1
    36    18    35   1
    37    19    36   1
    38    20    37   1
@<TRIPOS>SUBSTRUCTURE
     1  OAK      1

