@<TRIPOS>MOLECULE
3g2n_ligand_013
    37    38
SMALL
GAST_HUCK
****
This file was generated by PARSER (from files_GN.cpp)

@<TRIPOS>ATOM
      1 C9         34.2985   19.6122   30.5294 C.ar        1 OAK      -0.0419
      2 C10        34.3007   18.6247   31.5397 C.ar        1 OAK      -0.0562
      3 C11        33.1963   17.7639   31.6804 C.ar        1 OAK      -0.0575
      4 C12        32.0904   17.9018   30.8287 C.ar        1 OAK      -0.0562
      5 C13        32.0877   18.8639   29.8047 C.ar        1 OAK      -0.0419
      6 C8         33.1936   19.7309   29.6511 C.ar        1 OAK       0.0499
      7 C7         33.2145   20.6692   28.6499 C.2         1 OAK       0.2069
      8 O7         32.4109   21.5976   28.6745 O.2         1 OAK      -0.3846
      9 N1         34.1005   20.5080   27.6795 N.am        1 OAK      -0.2577
     10 C1         34.3218   21.3366   26.5398 C.3         1 OAK       0.1716
     11 O5         34.8563   22.6077   26.9515 O.3         1 OAK      -0.3437
     12 C5         35.3060   23.4325   25.8501 C.3         1 OAK       0.1127
     13 C6         36.0242   24.6787   26.4278 C.3         1 OAK       0.0730
     14 O6         35.0964   25.6712   26.8459 O.3         1 OAK      -0.3924
     15 C4         34.1150   23.7745   24.9156 C.3         1 OAK       0.1119
     16 O4         34.5955   24.4861   23.7824 O.3         1 OAK      -0.3865
     17 C3         33.3919   22.4847   24.4567 C.3         1 OAK       0.1138
     18 O3         32.1920   22.8085   23.7539 O.3         1 OAK      -0.3864
     19 C2         33.0486   21.5560   25.6570 C.3         1 OAK       0.1307
     20 O2         32.5615   20.2814   25.2052 O.3         1 OAK      -0.3844
     21 H1         35.0957   20.2337   30.4406 H           1 OAK       0.0669
     22 H2         35.1049   18.5275   32.1514 H           1 OAK       0.0629
     23 H3         33.1966   17.0439   32.4025 H           1 OAK       0.0653
     24 H4         31.2924   17.2855   30.9618 H           1 OAK       0.0629
     25 H5         31.2861   18.9155   29.1711 H           1 OAK       0.0669
     26 H6         34.6786   19.7313   27.7612 H           1 OAK       0.1871
     27 H7         35.0698   20.8154   25.9342 H           1 OAK       0.0896
     28 H8         36.0620   22.8829   25.2778 H           1 OAK       0.0647
     29 H9         36.6961   25.1138   25.6816 H           1 OAK       0.0584
     30 H10        36.6267   24.3869   27.2933 H           1 OAK       0.0584
     31 H11        34.7519   26.0755   26.0207 H           1 OAK       0.2095
     32 H12        33.3919   24.3954   25.4457 H           1 OAK       0.0647
     33 H13        34.9201   25.3440   24.1366 H           1 OAK       0.2100
     34 H14        34.0420   21.9338   23.7734 H           1 OAK       0.0647
     35 H15        31.6327   23.2862   24.4061 H           1 OAK       0.2100
     36 H16        32.2652   22.0346   26.2592 H           1 OAK       0.0668
     37 H17        31.5881   20.3984   25.1213 H           1 OAK       0.2101
@<TRIPOS>BOND
     1     1     2  ar
     2     1     6  ar
     3     2     3  ar
     4     3     4  ar
     5     4     5  ar
     6     5     6  ar
     7     6     7   1
     8     7     8   2
     9     7     9  am
    10     9    10   1
    11    10    11   1
    12    10    19   1
    13    11    12   1
    14    12    13   1
    15    12    15   1
    16    13    14   1
    17    15    16   1
    18    15    17   1
    19    17    18   1
    20    17    19   1
    21    19    20   1
    22     1    21   1
    23     2    22   1
    24     3    23   1
    25     4    24   1
    26     5    25   1
    27     9    26   1
    28    10    27   1
    29    12    28   1
    30    13    29   1
    31    13    30   1
    32    14    31   1
    33    15    32   1
    34    16    33   1
    35    17    34   1
    36    18    35   1
    37    19    36   1
    38    20    37   1
@<TRIPOS>SUBSTRUCTURE
     1  OAK      1

