@<TRIPOS>MOLECULE
3g2n_ligand_006
    37    38
SMALL
GAST_HUCK
****
This file was generated by PARSER (from files_GN.cpp)

@<TRIPOS>ATOM
      1 C9         34.1182   26.2807   34.1633 C.ar        1 OAK      -0.0419
      2 C10        32.9017   26.1573   33.4700 C.ar        1 OAK      -0.0562
      3 C11        32.3536   24.8925   33.2067 C.ar        1 OAK      -0.0575
      4 C12        33.0402   23.7495   33.6437 C.ar        1 OAK      -0.0562
      5 C13        34.2580   23.8639   34.3389 C.ar        1 OAK      -0.0419
      6 C8         34.8178   25.1346   34.6263 C.ar        1 OAK       0.0499
      7 C7         36.0071   25.2372   35.3547 C.2         1 OAK       0.2069
      8 O7         36.2782   24.3772   36.1858 O.2         1 OAK      -0.3846
      9 N1         36.8339   26.2611   35.1621 N.am        1 OAK      -0.2577
     10 C1         38.1371   26.4309   35.7423 C.3         1 OAK       0.1716
     11 O5         37.9876   27.3394   36.8550 O.3         1 OAK      -0.3437
     12 C5         39.1961   27.7600   37.5329 C.3         1 OAK       0.1127
     13 C6         38.7357   28.6327   38.7214 C.3         1 OAK       0.0730
     14 O6         39.8052   29.2407   39.4339 O.3         1 OAK      -0.3924
     15 C4         40.1441   28.4467   36.5044 C.3         1 OAK       0.1119
     16 O4         41.3673   28.8530   37.1110 O.3         1 OAK      -0.3865
     17 C3         40.4384   27.4665   35.3266 C.3         1 OAK       0.1138
     18 O3         41.2683   28.0895   34.3425 O.3         1 OAK      -0.3864
     19 C2         39.1092   26.9995   34.6684 C.3         1 OAK       0.1307
     20 O2         39.3349   26.0233   33.6477 O.3         1 OAK      -0.3844
     21 H1         34.4612   27.2220   34.3720 H           1 OAK       0.0669
     22 H2         32.4071   26.9942   33.1635 H           1 OAK       0.0629
     23 H3         31.4608   24.8062   32.7099 H           1 OAK       0.0653
     24 H4         32.6464   22.8311   33.4591 H           1 OAK       0.0629
     25 H5         34.7361   23.0021   34.6221 H           1 OAK       0.0669
     26 H6         36.5382   26.9639   34.5524 H           1 OAK       0.1871
     27 H7         38.5329   25.4777   36.1103 H           1 OAK       0.0896
     28 H8         39.7166   26.8884   37.9346 H           1 OAK       0.0647
     29 H9         38.2050   27.9946   39.4251 H           1 OAK       0.0584
     30 H10        38.0342   29.4001   38.3940 H           1 OAK       0.0584
     31 H11        40.0046   30.0774   38.9620 H           1 OAK       0.2095
     32 H12        39.6653   29.3479   36.1065 H           1 OAK       0.0647
     33 H13        41.7340   28.0482   37.5314 H           1 OAK       0.2100
     34 H14        40.9748   26.5920   35.7019 H           1 OAK       0.0647
     35 H15        41.3869   27.4308   33.6244 H           1 OAK       0.2100
     36 H16        38.6479   27.8739   34.1924 H           1 OAK       0.0668
     37 H17        39.5278   25.1840   34.1228 H           1 OAK       0.2101
@<TRIPOS>BOND
     1     1     2  ar
     2     1     6  ar
     3     2     3  ar
     4     3     4  ar
     5     4     5  ar
     6     5     6  ar
     7     6     7   1
     8     7     8   2
     9     7     9  am
    10     9    10   1
    11    10    11   1
    12    10    19   1
    13    11    12   1
    14    12    13   1
    15    12    15   1
    16    13    14   1
    17    15    16   1
    18    15    17   1
    19    17    18   1
    20    17    19   1
    21    19    20   1
    22     1    21   1
    23     2    22   1
    24     3    23   1
    25     4    24   1
    26     5    25   1
    27     9    26   1
    28    10    27   1
    29    12    28   1
    30    13    29   1
    31    13    30   1
    32    14    31   1
    33    15    32   1
    34    16    33   1
    35    17    34   1
    36    18    35   1
    37    19    36   1
    38    20    37   1
@<TRIPOS>SUBSTRUCTURE
     1  OAK      1

