@<TRIPOS>MOLECULE
3g2n_ligand_007
    37    38
SMALL
GAST_HUCK
****
This file was generated by PARSER (from files_GN.cpp)

@<TRIPOS>ATOM
      1 C9         35.2684   23.6975   31.4490 C.ar        1 OAK      -0.0419
      2 C10        36.0291   24.1017   32.5629 C.ar        1 OAK      -0.0562
      3 C11        37.4189   23.9350   32.5664 C.ar        1 OAK      -0.0575
      4 C12        38.0647   23.3491   31.4614 C.ar        1 OAK      -0.0562
      5 C13        37.3087   22.9375   30.3439 C.ar        1 OAK      -0.0419
      6 C8         35.9042   23.1145   30.3258 C.ar        1 OAK       0.0499
      7 C7         35.1708   22.7618   29.2107 C.2         1 OAK       0.2069
      8 O7         34.9681   23.6559   28.3939 O.2         1 OAK      -0.3846
      9 N1         34.7212   21.5192   29.0742 N.am        1 OAK      -0.2577
     10 C1         33.9917   20.9619   27.9687 C.3         1 OAK       0.1716
     11 O5         33.6314   21.9639   26.9828 O.3         1 OAK      -0.3437
     12 C5         32.8419   21.5402   25.8508 C.3         1 OAK       0.1127
     13 C6         32.6266   22.7851   24.9481 C.3         1 OAK       0.0730
     14 O6         33.4429   22.6817   23.7803 O.3         1 OAK      -0.3924
     15 C4         31.5080   20.9113   26.3432 C.3         1 OAK       0.1119
     16 O4         30.7657   20.4115   25.2270 O.3         1 OAK      -0.3865
     17 C3         31.8203   19.7569   27.3232 C.3         1 OAK       0.1138
     18 O3         30.5920   19.2154   27.8151 O.3         1 OAK      -0.3864
     19 C2         32.7157   20.2331   28.4955 C.3         1 OAK       0.1307
     20 O2         33.0607   19.0976   29.2901 O.3         1 OAK      -0.3844
     21 H1         34.2546   23.8375   31.4546 H           1 OAK       0.0669
     22 H2         35.5657   24.5419   33.3589 H           1 OAK       0.0629
     23 H3         37.9749   24.2738   33.3547 H           1 OAK       0.0653
     24 H4         39.0755   23.2504   31.4563 H           1 OAK       0.0629
     25 H5         37.7926   22.5389   29.5336 H           1 OAK       0.0669
     26 H6         34.8909   20.9209   29.8258 H           1 OAK       0.1871
     27 H7         34.6523   20.2343   27.4877 H           1 OAK       0.0896
     28 H8         33.4099   20.7816   25.2994 H           1 OAK       0.0647
     29 H9         32.8755   23.7130   25.4713 H           1 OAK       0.0584
     30 H10        31.5900   22.8734   24.6071 H           1 OAK       0.0584
     31 H11        33.3785   23.5706   23.3581 H           1 OAK       0.2095
     32 H12        30.9126   21.6836   26.8477 H           1 OAK       0.0647
     33 H13        29.8363   20.3698   25.5551 H           1 OAK       0.2100
     34 H14        32.3494   18.9650   26.7810 H           1 OAK       0.0647
     35 H15        30.8279   18.3438   28.2145 H           1 OAK       0.2100
     36 H16        32.1472   20.9338   29.1180 H           1 OAK       0.0668
     37 H17        33.5438   19.4653   30.0596 H           1 OAK       0.2101
@<TRIPOS>BOND
     1     1     2  ar
     2     1     6  ar
     3     2     3  ar
     4     3     4  ar
     5     4     5  ar
     6     5     6  ar
     7     6     7   1
     8     7     8   2
     9     7     9  am
    10     9    10   1
    11    10    11   1
    12    10    19   1
    13    11    12   1
    14    12    13   1
    15    12    15   1
    16    13    14   1
    17    15    16   1
    18    15    17   1
    19    17    18   1
    20    17    19   1
    21    19    20   1
    22     1    21   1
    23     2    22   1
    24     3    23   1
    25     4    24   1
    26     5    25   1
    27     9    26   1
    28    10    27   1
    29    12    28   1
    30    13    29   1
    31    13    30   1
    32    14    31   1
    33    15    32   1
    34    16    33   1
    35    17    34   1
    36    18    35   1
    37    19    36   1
    38    20    37   1
@<TRIPOS>SUBSTRUCTURE
     1  OAK      1

