@<TRIPOS>MOLECULE
3g2n_ligand_012
    37    38
SMALL
GAST_HUCK
****
This file was generated by PARSER (from files_GN.cpp)

@<TRIPOS>ATOM
      1 C9         34.2027   19.9357   26.4080 C.ar        1 OAK      -0.0419
      2 C10        34.6266   18.6229   26.6844 C.ar        1 OAK      -0.0562
      3 C11        33.7063   17.6760   27.1675 C.ar        1 OAK      -0.0575
      4 C12        32.3611   18.0346   27.3777 C.ar        1 OAK      -0.0562
      5 C13        31.9364   19.3501   27.1054 C.ar        1 OAK      -0.0419
      6 C8         32.8543   20.3063   26.6165 C.ar        1 OAK       0.0499
      7 C7         32.4609   21.6027   26.4375 C.2         1 OAK       0.2069
      8 O7         32.1376   21.9693   25.3072 O.2         1 OAK      -0.3846
      9 N1         32.4597   22.3940   27.4987 N.am        1 OAK      -0.2577
     10 C1         32.1335   23.7828   27.5502 C.3         1 OAK       0.1716
     11 O5         32.7096   24.2533   28.7792 O.3         1 OAK      -0.3437
     12 C5         32.5557   25.6599   29.0489 C.3         1 OAK       0.1127
     13 C6         33.3524   25.9904   30.3389 C.3         1 OAK       0.0730
     14 O6         34.4796   25.1357   30.5096 O.3         1 OAK      -0.3924
     15 C4         31.0429   26.0202   29.1443 C.3         1 OAK       0.1119
     16 O4         30.8131   27.4274   29.2413 O.3         1 OAK      -0.3865
     17 C3         30.2758   25.5009   27.9040 C.3         1 OAK       0.1138
     18 O3         28.8841   25.6649   28.1509 O.3         1 OAK      -0.3864
     19 C2         30.5931   24.0225   27.5791 C.3         1 OAK       0.1307
     20 O2         29.9599   23.6419   26.3547 O.3         1 OAK      -0.3844
     21 H1         34.8922   20.6195   26.0798 H           1 OAK       0.0669
     22 H2         35.6092   18.3661   26.5633 H           1 OAK       0.0629
     23 H3         34.0133   16.7239   27.3858 H           1 OAK       0.0653
     24 H4         31.6920   17.3492   27.7291 H           1 OAK       0.0629
     25 H5         30.9582   19.6014   27.2768 H           1 OAK       0.0669
     26 H6         32.7605   21.9996   28.3343 H           1 OAK       0.1871
     27 H7         32.5917   24.3016   26.6983 H           1 OAK       0.0896
     28 H8         32.9906   26.2287   28.2236 H           1 OAK       0.0647
     29 H9         32.7206   25.8775   31.2215 H           1 OAK       0.0584
     30 H10        33.7225   27.0228   30.3051 H           1 OAK       0.0584
     31 H11        35.0941   25.3657   29.7831 H           1 OAK       0.2095
     32 H12        30.6370   25.5601   30.0483 H           1 OAK       0.0647
     33 H13        31.3066   27.8226   28.4906 H           1 OAK       0.2100
     34 H14        30.5522   26.1181   27.0429 H           1 OAK       0.0647
     35 H15        28.5084   25.9112   27.2778 H           1 OAK       0.2100
     36 H16        30.1744   23.3899   28.3649 H           1 OAK       0.0668
     37 H17        30.4986   24.0372   25.6407 H           1 OAK       0.2101
@<TRIPOS>BOND
     1     1     2  ar
     2     1     6  ar
     3     2     3  ar
     4     3     4  ar
     5     4     5  ar
     6     5     6  ar
     7     6     7   1
     8     7     8   2
     9     7     9  am
    10     9    10   1
    11    10    11   1
    12    10    19   1
    13    11    12   1
    14    12    13   1
    15    12    15   1
    16    13    14   1
    17    15    16   1
    18    15    17   1
    19    17    18   1
    20    17    19   1
    21    19    20   1
    22     1    21   1
    23     2    22   1
    24     3    23   1
    25     4    24   1
    26     5    25   1
    27     9    26   1
    28    10    27   1
    29    12    28   1
    30    13    29   1
    31    13    30   1
    32    14    31   1
    33    15    32   1
    34    16    33   1
    35    17    34   1
    36    18    35   1
    37    19    36   1
    38    20    37   1
@<TRIPOS>SUBSTRUCTURE
     1  OAK      1

