@<TRIPOS>MOLECULE
3g2z_ligand_004
    22    23
SMALL
GAST_HUCK
****
This file was generated by PARSER (from files_GN.cpp)

@<TRIPOS>ATOM
      1 O13       -10.0568   54.6751    3.1526 O.2         1 GZ2      -0.4178
      2 C11        -9.5518   55.6739    3.6421 C.2         1 GZ2       0.0775
      3 C12        -9.4922   55.7821    5.0048 C.2         1 GZ2      -0.0164
      4 C7         -9.2585   56.9570    5.6353 C.2         1 GZ2       0.0672
      5 C8         -9.0932   58.1928    4.8744 C.3         1 GZ2       0.0190
      6 C9         -8.4571   57.9218    3.4841 C.3         1 GZ2      -0.0220
      7 C10        -9.2219   56.7832    2.7537 C.3         1 GZ2       0.0123
      8 N6         -9.3378   57.0729    6.9653 N.pl3       1 GZ2      -0.2078
      9 C5         -8.4093   56.6255    7.8329 C.2         1 GZ2       0.2841
     10 N4         -8.3862   56.8406    9.1507 N.pl3       1 GZ2      -0.1321
     11 N3         -7.3042   56.3665    9.5924 N.2         1 GZ2      -0.0778
     12 N2         -6.6642   55.8656    8.6758 N.2         1 GZ2      -0.1598
     13 N1         -7.2709   55.9747    7.5754 N.2         1 GZ2      -0.2093
     14 H1         -9.6875   54.9733    5.5513 H           1 GZ2       0.0170
     15 H2         -8.4394   58.8858    5.4107 H           1 GZ2       0.0529
     16 H3        -10.0692   58.6655    4.7507 H           1 GZ2       0.0529
     17 H4         -7.4168   57.6156    3.6304 H           1 GZ2       0.0320
     18 H5         -8.4594   58.8323    2.8831 H           1 GZ2       0.0320
     19 H6        -10.1449   57.1900    2.3271 H           1 GZ2       0.0470
     20 H7         -8.6031   56.4168    1.9271 H           1 GZ2       0.0470
     21 H8         -9.9963   57.6953    7.3110 H           1 GZ2       0.2327
     22 H9         -9.0583   57.3004    9.6783 H           1 GZ2       0.2694
@<TRIPOS>BOND
     1     1     2   2
     2     2     3   1
     3     2     7   1
     4     3     4   2
     5     4     5   1
     6     4     8   1
     7     5     6   1
     8     6     7   1
     9     8     9   1
    10     9    10   1
    11     9    13   2
    12    10    11   1
    13    11    12   2
    14    12    13   1
    15     3    14   1
    16     5    15   1
    17     5    16   1
    18     6    17   1
    19     6    18   1
    20     7    19   1
    21     7    20   1
    22     8    21   1
    23    10    22   1
@<TRIPOS>SUBSTRUCTURE
     1  GZ2      2

