@<TRIPOS>MOLECULE
3g2z_ligand_057
    22    23
SMALL
GAST_HUCK
****
This file was generated by PARSER (from files_GN.cpp)

@<TRIPOS>ATOM
      1 O13        -2.6191   46.1092    8.4232 O.2         1 GZ2      -0.4178
      2 C11        -1.5852   46.1288    9.0790 C.2         1 GZ2       0.0775
      3 C12        -1.1023   47.3276    9.5191 C.2         1 GZ2      -0.0164
      4 C7          0.1348   47.4873   10.0444 C.2         1 GZ2       0.0672
      5 C8          1.0598   46.3507   10.0977 C.3         1 GZ2       0.0190
      6 C9          0.3254   44.9901   10.2288 C.3         1 GZ2      -0.0220
      7 C10        -0.8327   44.8866    9.2011 C.3         1 GZ2       0.0123
      8 N6          0.6558   48.6563   10.4510 N.pl3       1 GZ2      -0.2078
      9 C5          0.0803   49.8608   10.6640 C.2         1 GZ2       0.2841
     10 N4          0.7662   50.9193   11.0867 N.pl3       1 GZ2      -0.1321
     11 N3         -0.0303   51.8837   11.2006 N.2         1 GZ2      -0.0778
     12 N2         -1.1610   51.5213   10.8901 N.2         1 GZ2      -0.1598
     13 N1         -1.1762   50.3024   10.5544 N.2         1 GZ2      -0.2093
     14 H1         -1.6933   48.1173    9.4231 H           1 GZ2       0.0170
     15 H2          1.7460   46.4473   10.9457 H           1 GZ2       0.0529
     16 H3          1.6578   46.3502    9.1822 H           1 GZ2       0.0529
     17 H4         -0.0856   44.9061   11.2398 H           1 GZ2       0.0320
     18 H5          1.0305   44.1676   10.0822 H           1 GZ2       0.0320
     19 H6         -0.4243   44.6303    8.2197 H           1 GZ2       0.0470
     20 H7         -1.5022   44.0796    9.5118 H           1 GZ2       0.0470
     21 H8          1.6033   48.6333   10.6583 H           1 GZ2       0.2327
     22 H9          1.7182   50.9289   11.2710 H           1 GZ2       0.2694
@<TRIPOS>BOND
     1     1     2   2
     2     2     3   1
     3     2     7   1
     4     3     4   2
     5     4     5   1
     6     4     8   1
     7     5     6   1
     8     6     7   1
     9     8     9   1
    10     9    10   1
    11     9    13   2
    12    10    11   1
    13    11    12   2
    14    12    13   1
    15     3    14   1
    16     5    15   1
    17     5    16   1
    18     6    17   1
    19     6    18   1
    20     7    19   1
    21     7    20   1
    22     8    21   1
    23    10    22   1
@<TRIPOS>SUBSTRUCTURE
     1  GZ2      2

