@<TRIPOS>MOLECULE
3g2z_ligand_015
    22    23
SMALL
GAST_HUCK
****
This file was generated by PARSER (from files_GN.cpp)

@<TRIPOS>ATOM
      1 O13        -3.9308   52.9922   11.9020 O.2         1 GZ2      -0.4178
      2 C11        -4.7212   53.6968   12.5178 C.2         1 GZ2       0.0775
      3 C12        -5.6377   54.4347   11.8273 C.2         1 GZ2      -0.0164
      4 C7         -6.3754   55.4334   12.3778 C.2         1 GZ2       0.0672
      5 C8         -6.2382   55.7471   13.8008 C.3         1 GZ2       0.0190
      6 C9         -5.7466   54.5313   14.6329 C.3         1 GZ2      -0.0220
      7 C10        -4.5293   53.8523   13.9497 C.3         1 GZ2       0.0123
      8 N6         -7.2641   56.1995   11.7172 N.pl3       1 GZ2      -0.2078
      9 C5         -7.4426   56.3668   10.3853 C.2         1 GZ2       0.2841
     10 N4         -8.4055   57.1051    9.8373 N.pl3       1 GZ2      -0.1321
     11 N3         -8.2940   57.0445    8.5861 N.2         1 GZ2      -0.0778
     12 N2         -7.3308   56.3410    8.2968 N.2         1 GZ2      -0.1598
     13 N1         -6.7621   55.8938    9.3349 N.2         1 GZ2      -0.2093
     14 H1         -5.7900   54.1742   10.8865 H           1 GZ2       0.0170
     15 H2         -7.1930   56.0821   14.2177 H           1 GZ2       0.0529
     16 H3         -5.5295   56.5754   13.9000 H           1 GZ2       0.0529
     17 H4         -6.5584   53.8018   14.7145 H           1 GZ2       0.0320
     18 H5         -5.4850   54.8527   15.6427 H           1 GZ2       0.0320
     19 H6         -3.6347   54.4617   14.1010 H           1 GZ2       0.0470
     20 H7         -4.3733   52.8701   14.4024 H           1 GZ2       0.0470
     21 H8         -7.8470   56.7458   12.2850 H           1 GZ2       0.2327
     22 H9         -9.0878   57.5954   10.3183 H           1 GZ2       0.2694
@<TRIPOS>BOND
     1     1     2   2
     2     2     3   1
     3     2     7   1
     4     3     4   2
     5     4     5   1
     6     4     8   1
     7     5     6   1
     8     6     7   1
     9     8     9   1
    10     9    10   1
    11     9    13   2
    12    10    11   1
    13    11    12   2
    14    12    13   1
    15     3    14   1
    16     5    15   1
    17     5    16   1
    18     6    17   1
    19     6    18   1
    20     7    19   1
    21     7    20   1
    22     8    21   1
    23    10    22   1
@<TRIPOS>SUBSTRUCTURE
     1  GZ2      2

