@<TRIPOS>MOLECULE
3g2z_ligand_021
    22    23
SMALL
GAST_HUCK
****
This file was generated by PARSER (from files_GN.cpp)

@<TRIPOS>ATOM
      1 O13        -1.6208   52.4950   13.3042 O.2         1 GZ2      -0.4178
      2 C11        -1.1134   51.7947   12.4362 C.2         1 GZ2       0.0775
      3 C12        -1.1281   50.4392   12.5887 C.2         1 GZ2      -0.0164
      4 C7         -0.7124   49.5829   11.6287 C.2         1 GZ2       0.0672
      5 C8         -0.3981   50.0887   10.2850 C.3         1 GZ2       0.0190
      6 C9          0.2297   51.5059   10.3385 C.3         1 GZ2      -0.0220
      7 C10        -0.6310   52.4484   11.2244 C.3         1 GZ2       0.0123
      8 N6         -0.8363   48.2758   11.8718 N.pl3       1 GZ2      -0.2078
      9 C5          0.0138   47.2941   11.5004 C.2         1 GZ2       0.2841
     10 N4          1.2053   47.3610   10.9072 N.pl3       1 GZ2      -0.1321
     11 N3          1.6474   46.1909   10.7935 N.2         1 GZ2      -0.0778
     12 N2          0.8386   45.3967   11.2637 N.2         1 GZ2      -0.1598
     13 N1         -0.1783   45.9922   11.7233 N.2         1 GZ2      -0.2093
     14 H1         -1.4315   50.0694   13.4642 H           1 GZ2       0.0170
     15 H2         -1.3328   50.1346    9.7219 H           1 GZ2       0.0529
     16 H3          0.2794   49.4338    9.7392 H           1 GZ2       0.0529
     17 H4          0.3161   51.9135    9.3288 H           1 GZ2       0.0320
     18 H5          1.2365   51.4330   10.7602 H           1 GZ2       0.0320
     19 H6         -0.0312   53.3248   11.4837 H           1 GZ2       0.0470
     20 H7         -1.4957   52.7926   10.6511 H           1 GZ2       0.0470
     21 H8         -1.5700   48.0105   12.4509 H           1 GZ2       0.2327
     22 H9          1.6877   48.1719   10.6769 H           1 GZ2       0.2694
@<TRIPOS>BOND
     1     1     2   2
     2     2     3   1
     3     2     7   1
     4     3     4   2
     5     4     5   1
     6     4     8   1
     7     5     6   1
     8     6     7   1
     9     8     9   1
    10     9    10   1
    11     9    13   2
    12    10    11   1
    13    11    12   2
    14    12    13   1
    15     3    14   1
    16     5    15   1
    17     5    16   1
    18     6    17   1
    19     6    18   1
    20     7    19   1
    21     7    20   1
    22     8    21   1
    23    10    22   1
@<TRIPOS>SUBSTRUCTURE
     1  GZ2      2

