@<TRIPOS>MOLECULE
3g2z_ligand_031
    22    23
SMALL
GAST_HUCK
****
This file was generated by PARSER (from files_GN.cpp)

@<TRIPOS>ATOM
      1 O13        -2.8306   49.5595    8.9238 O.2         1 GZ2      -0.4178
      2 C11        -1.9649   49.8299    9.7444 C.2         1 GZ2       0.0775
      3 C12        -0.8617   50.5137    9.3312 C.2         1 GZ2      -0.0164
      4 C7          0.0591   51.0082   10.1835 C.2         1 GZ2       0.0672
      5 C8         -0.0890   50.8777   11.6307 C.3         1 GZ2       0.0190
      6 C9         -0.9823   49.6728   12.0382 C.3         1 GZ2      -0.0220
      7 C10        -2.2550   49.5859   11.1533 C.3         1 GZ2       0.0123
      8 N6          1.1325   51.6628    9.7328 N.pl3       1 GZ2      -0.2078
      9 C5          1.0864   52.8914    9.1717 C.2         1 GZ2       0.2841
     10 N4          2.1346   53.6083    8.7725 N.pl3       1 GZ2      -0.1321
     11 N3          1.7058   54.7109    8.3567 N.2         1 GZ2      -0.0778
     12 N2          0.4838   54.7477    8.4579 N.2         1 GZ2      -0.1598
     13 N1          0.0288   53.6774    8.9494 N.2         1 GZ2      -0.2093
     14 H1         -0.7069   50.6232    8.3551 H           1 GZ2       0.0170
     15 H2         -0.5415   51.8011   12.0063 H           1 GZ2       0.0529
     16 H3          0.8931   50.7671   12.1005 H           1 GZ2       0.0529
     17 H4         -1.2654   49.7598   13.0898 H           1 GZ2       0.0320
     18 H5         -0.4062   48.7501   11.9207 H           1 GZ2       0.0320
     19 H6         -2.6929   48.5922   11.2840 H           1 GZ2       0.0470
     20 H7         -2.9865   50.3228   11.4952 H           1 GZ2       0.0470
     21 H8          2.0085   51.3122    9.9629 H           1 GZ2       0.2327
     22 H9          3.0651   53.3353    8.7879 H           1 GZ2       0.2694
@<TRIPOS>BOND
     1     1     2   2
     2     2     3   1
     3     2     7   1
     4     3     4   2
     5     4     5   1
     6     4     8   1
     7     5     6   1
     8     6     7   1
     9     8     9   1
    10     9    10   1
    11     9    13   2
    12    10    11   1
    13    11    12   2
    14    12    13   1
    15     3    14   1
    16     5    15   1
    17     5    16   1
    18     6    17   1
    19     6    18   1
    20     7    19   1
    21     7    20   1
    22     8    21   1
    23    10    22   1
@<TRIPOS>SUBSTRUCTURE
     1  GZ2      2

