@<TRIPOS>MOLECULE
3g2z_ligand_066
    22    23
SMALL
GAST_HUCK
****
This file was generated by PARSER (from files_GN.cpp)

@<TRIPOS>ATOM
      1 O13       -10.4714   58.7509    9.2802 O.2         1 GZ2      -0.4178
      2 C11        -9.6048   57.9026    9.4442 C.2         1 GZ2       0.0775
      3 C12        -9.0992   57.7196   10.6954 C.2         1 GZ2      -0.0164
      4 C7         -8.2594   56.7118   11.0203 C.2         1 GZ2       0.0672
      5 C8         -7.9669   55.6438   10.0510 C.3         1 GZ2       0.0190
      6 C9         -8.0293   56.1475    8.5895 C.3         1 GZ2      -0.0220
      7 C10        -9.3125   56.9876    8.3442 C.3         1 GZ2       0.0123
      8 N6         -7.8918   56.6365   12.3046 N.pl3       1 GZ2      -0.2078
      9 C5         -6.6745   56.2875   12.7812 C.2         1 GZ2       0.2841
     10 N4         -6.3189   56.3121   14.0631 N.pl3       1 GZ2      -0.1321
     11 N3         -5.1075   55.9841   14.1410 N.2         1 GZ2      -0.0778
     12 N2         -4.6663   55.7573   13.0208 N.2         1 GZ2      -0.1598
     13 N1         -5.5593   55.9122   12.1419 N.2         1 GZ2      -0.2093
     14 H1         -9.3481   58.3907   11.3967 H           1 GZ2       0.0170
     15 H2         -8.7064   54.8542   10.1953 H           1 GZ2       0.0529
     16 H3         -6.9860   55.2086   10.2087 H           1 GZ2       0.0529
     17 H4         -8.0010   55.2997    7.9032 H           1 GZ2       0.0320
     18 H5         -7.1515   56.7679    8.3920 H           1 GZ2       0.0320
     19 H6         -9.1875   57.5526    7.4150 H           1 GZ2       0.0470
     20 H7        -10.1677   56.3165    8.2217 H           1 GZ2       0.0470
     21 H8         -8.5075   57.0137   12.9540 H           1 GZ2       0.2327
     22 H9         -6.8890   56.5422   14.8147 H           1 GZ2       0.2694
@<TRIPOS>BOND
     1     1     2   2
     2     2     3   1
     3     2     7   1
     4     3     4   2
     5     4     5   1
     6     4     8   1
     7     5     6   1
     8     6     7   1
     9     8     9   1
    10     9    10   1
    11     9    13   2
    12    10    11   1
    13    11    12   2
    14    12    13   1
    15     3    14   1
    16     5    15   1
    17     5    16   1
    18     6    17   1
    19     6    18   1
    20     7    19   1
    21     7    20   1
    22     8    21   1
    23    10    22   1
@<TRIPOS>SUBSTRUCTURE
     1  GZ2      2

