@<TRIPOS>MOLECULE
3g2z_ligand_069
    22    23
SMALL
GAST_HUCK
****
This file was generated by PARSER (from files_GN.cpp)

@<TRIPOS>ATOM
      1 O13        -2.9599   52.8561   13.3283 O.2         1 GZ2      -0.4178
      2 C11        -2.5352   52.6369   12.2006 C.2         1 GZ2       0.0775
      3 C12        -1.3833   53.2527   11.8115 C.2         1 GZ2      -0.0164
      4 C7         -0.9130   53.2431   10.5406 C.2         1 GZ2       0.0672
      5 C8         -1.6752   52.5676    9.4727 C.3         1 GZ2       0.0190
      6 C9         -2.6396   51.4651   10.0091 C.3         1 GZ2      -0.0220
      7 C10        -3.4141   51.9530   11.2612 C.3         1 GZ2       0.0123
      8 N6          0.1752   53.9888   10.2664 N.pl3       1 GZ2      -0.2078
      9 C5          1.3589   53.5159    9.7980 C.2         1 GZ2       0.2841
     10 N4          2.5045   54.1777    9.5831 N.pl3       1 GZ2      -0.1321
     11 N3          3.3492   53.3503    9.1371 N.2         1 GZ2      -0.0778
     12 N2          2.8312   52.2417    9.0589 N.2         1 GZ2      -0.1598
     13 N1          1.6392   52.2582    9.4489 N.2         1 GZ2      -0.2093
     14 H1         -0.8430   53.7181   12.5019 H           1 GZ2       0.0170
     15 H2         -0.9930   52.0890    8.7720 H           1 GZ2       0.0529
     16 H3         -2.2667   53.3060    8.9208 H           1 GZ2       0.0529
     17 H4         -2.0487   50.5852   10.2879 H           1 GZ2       0.0320
     18 H5         -3.3452   51.1599    9.2287 H           1 GZ2       0.0320
     19 H6         -4.2098   52.6364   10.9553 H           1 GZ2       0.0470
     20 H7         -3.8755   51.0875   11.7440 H           1 GZ2       0.0470
     21 H8          0.1377   54.9178   10.4899 H           1 GZ2       0.2327
     22 H9          2.7064   55.1226    9.7438 H           1 GZ2       0.2694
@<TRIPOS>BOND
     1     1     2   2
     2     2     3   1
     3     2     7   1
     4     3     4   2
     5     4     5   1
     6     4     8   1
     7     5     6   1
     8     6     7   1
     9     8     9   1
    10     9    10   1
    11     9    13   2
    12    10    11   1
    13    11    12   2
    14    12    13   1
    15     3    14   1
    16     5    15   1
    17     5    16   1
    18     6    17   1
    19     6    18   1
    20     7    19   1
    21     7    20   1
    22     8    21   1
    23    10    22   1
@<TRIPOS>SUBSTRUCTURE
     1  GZ2      2

