@<TRIPOS>MOLECULE
3g2z_ligand_037
    22    23
SMALL
GAST_HUCK
****
This file was generated by PARSER (from files_GN.cpp)

@<TRIPOS>ATOM
      1 O13        -8.0360   54.8957   13.4220 O.2         1 GZ2      -0.4178
      2 C11        -8.2380   55.7623   12.5841 C.2         1 GZ2       0.0775
      3 C12        -9.1235   56.7595   12.8580 C.2         1 GZ2      -0.0164
      4 C7         -9.5627   57.6570   11.9489 C.2         1 GZ2       0.0672
      5 C8         -9.0729   57.5955   10.5578 C.3         1 GZ2       0.0190
      6 C9         -7.7281   56.8464   10.4066 C.3         1 GZ2      -0.0220
      7 C10        -7.6948   55.5494   11.2460 C.3         1 GZ2       0.0123
      8 N6        -10.4985   58.5246   12.3678 N.pl3       1 GZ2      -0.2078
      9 C5        -11.0704   59.5739   11.7263 C.2         1 GZ2       0.2841
     10 N4        -10.9157   60.0710   10.4982 N.pl3       1 GZ2      -0.1321
     11 N3        -11.6548   61.0776   10.3829 N.2         1 GZ2      -0.0778
     12 N2        -12.2703   61.2546   11.4278 N.2         1 GZ2      -0.1598
     13 N1        -11.9741   60.3822   12.2903 N.2         1 GZ2      -0.2093
     14 H1         -9.4766   56.8161   13.7931 H           1 GZ2       0.0170
     15 H2         -8.8834   58.5923   10.1726 H           1 GZ2       0.0529
     16 H3         -9.8411   57.1156    9.9451 H           1 GZ2       0.0529
     17 H4         -6.9285   57.5071   10.7568 H           1 GZ2       0.0320
     18 H5         -7.5409   56.6229    9.3500 H           1 GZ2       0.0320
     19 H6         -8.2801   54.7770   10.7455 H           1 GZ2       0.0470
     20 H7         -6.6583   55.2116   11.3153 H           1 GZ2       0.0470
     21 H8        -10.7922   58.4203   13.2894 H           1 GZ2       0.2327
     22 H9        -10.3426   59.7206    9.8003 H           1 GZ2       0.2694
@<TRIPOS>BOND
     1     1     2   2
     2     2     3   1
     3     2     7   1
     4     3     4   2
     5     4     5   1
     6     4     8   1
     7     5     6   1
     8     6     7   1
     9     8     9   1
    10     9    10   1
    11     9    13   2
    12    10    11   1
    13    11    12   2
    14    12    13   1
    15     3    14   1
    16     5    15   1
    17     5    16   1
    18     6    17   1
    19     6    18   1
    20     7    19   1
    21     7    20   1
    22     8    21   1
    23    10    22   1
@<TRIPOS>SUBSTRUCTURE
     1  GZ2      2

