@<TRIPOS>MOLECULE
3g2z_ligand_053
    22    23
SMALL
GAST_HUCK
****
This file was generated by PARSER (from files_GN.cpp)

@<TRIPOS>ATOM
      1 O13        -2.0324   47.5938   13.7854 O.2         1 GZ2      -0.4178
      2 C11        -1.4309   46.5973   13.4022 C.2         1 GZ2       0.0775
      3 C12        -0.4209   46.7369   12.4945 C.2         1 GZ2      -0.0164
      4 C7          0.4568   45.7493   12.2186 C.2         1 GZ2       0.0672
      5 C8          0.4382   44.4869   12.9549 C.3         1 GZ2       0.0190
      6 C9         -0.9946   44.1250   13.4293 C.3         1 GZ2      -0.0220
      7 C10        -1.6788   45.3450   14.1065 C.3         1 GZ2       0.0123
      8 N6          1.4881   45.9609   11.4021 N.pl3       1 GZ2      -0.2078
      9 C5          1.3881   46.0703   10.0594 C.2         1 GZ2       0.2841
     10 N4          2.4143   46.1977    9.2190 N.pl3       1 GZ2      -0.1321
     11 N3          1.9544   46.2447    8.0518 N.2         1 GZ2      -0.0778
     12 N2          0.7319   46.1511    8.0846 N.2         1 GZ2      -0.1598
     13 N1          0.3085   46.0378    9.2718 N.2         1 GZ2      -0.2093
     14 H1         -0.3118   47.6153   12.0389 H           1 GZ2       0.0170
     15 H2          1.1043   44.5680   13.8175 H           1 GZ2       0.0529
     16 H3          0.8056   43.6744   12.3207 H           1 GZ2       0.0529
     17 H4         -0.9568   43.2804   14.1222 H           1 GZ2       0.0320
     18 H5         -1.5847   43.8192   12.5595 H           1 GZ2       0.0320
     19 H6         -2.7556   45.1592   14.1559 H           1 GZ2       0.0470
     20 H7         -1.3013   45.4425   15.1284 H           1 GZ2       0.0470
     21 H8          2.3765   45.8515   11.7757 H           1 GZ2       0.2327
     22 H9          3.3500   46.2610    9.4608 H           1 GZ2       0.2694
@<TRIPOS>BOND
     1     1     2   2
     2     2     3   1
     3     2     7   1
     4     3     4   2
     5     4     5   1
     6     4     8   1
     7     5     6   1
     8     6     7   1
     9     8     9   1
    10     9    10   1
    11     9    13   2
    12    10    11   1
    13    11    12   2
    14    12    13   1
    15     3    14   1
    16     5    15   1
    17     5    16   1
    18     6    17   1
    19     6    18   1
    20     7    19   1
    21     7    20   1
    22     8    21   1
    23    10    22   1
@<TRIPOS>SUBSTRUCTURE
     1  GZ2      2

