@<TRIPOS>MOLECULE
3g2z_ligand_014
    22    23
SMALL
GAST_HUCK
****
This file was generated by PARSER (from files_GN.cpp)

@<TRIPOS>ATOM
      1 O13        -6.0388   56.1090    7.8189 O.2         1 GZ2      -0.4178
      2 C11        -7.1624   56.3062    8.2782 C.2         1 GZ2       0.0775
      3 C12        -7.3739   56.1105    9.6079 C.2         1 GZ2      -0.0164
      4 C7         -8.5966   56.1380   10.1766 C.2         1 GZ2       0.0672
      5 C8         -9.7939   56.2525    9.3378 C.3         1 GZ2       0.0190
      6 C9         -9.5276   57.0793    8.0528 C.3         1 GZ2      -0.0220
      7 C10        -8.2431   56.5857    7.3347 C.3         1 GZ2       0.0123
      8 N6         -8.8193   55.8650   11.4707 N.pl3       1 GZ2      -0.2078
      9 C5         -7.9903   55.9885   12.5395 C.2         1 GZ2       0.2841
     10 N4         -6.7755   56.5170   12.6880 N.pl3       1 GZ2      -0.1321
     11 N3         -6.4178   56.3656   13.8830 N.2         1 GZ2      -0.0778
     12 N2         -7.3109   55.7895   14.4989 N.2         1 GZ2      -0.1598
     13 N1         -8.3000   55.5452   13.7548 N.2         1 GZ2      -0.2093
     14 H1         -6.5900   55.8815   10.1676 H           1 GZ2       0.0170
     15 H2        -10.6098   56.7360    9.8938 H           1 GZ2       0.0529
     16 H3        -10.1263   55.2481    9.0590 H           1 GZ2       0.0529
     17 H4         -9.3898   58.1301    8.3333 H           1 GZ2       0.0320
     18 H5        -10.3839   57.0143    7.3760 H           1 GZ2       0.0320
     19 H6         -8.4702   55.6738    6.7741 H           1 GZ2       0.0470
     20 H7         -7.9293   57.3524    6.6207 H           1 GZ2       0.0470
     21 H8         -9.7065   55.5373   11.6783 H           1 GZ2       0.2327
     22 H9         -6.2431   56.9519   12.0065 H           1 GZ2       0.2694
@<TRIPOS>BOND
     1     1     2   2
     2     2     3   1
     3     2     7   1
     4     3     4   2
     5     4     5   1
     6     4     8   1
     7     5     6   1
     8     6     7   1
     9     8     9   1
    10     9    10   1
    11     9    13   2
    12    10    11   1
    13    11    12   2
    14    12    13   1
    15     3    14   1
    16     5    15   1
    17     5    16   1
    18     6    17   1
    19     6    18   1
    20     7    19   1
    21     7    20   1
    22     8    21   1
    23    10    22   1
@<TRIPOS>SUBSTRUCTURE
     1  GZ2      2

