@<TRIPOS>MOLECULE
3g2z_ligand_018
    22    23
SMALL
GAST_HUCK
****
This file was generated by PARSER (from files_GN.cpp)

@<TRIPOS>ATOM
      1 O13        -3.4308   55.0797   13.1350 O.2         1 GZ2      -0.4178
      2 C11        -4.5018   54.5493   13.4036 C.2         1 GZ2       0.0775
      3 C12        -5.6347   54.9662   12.7650 C.2         1 GZ2      -0.0164
      4 C7         -6.8240   54.3240   12.8552 C.2         1 GZ2       0.0672
      5 C8         -6.9039   53.0432   13.5670 C.3         1 GZ2       0.0190
      6 C9         -5.9125   52.9724   14.7565 C.3         1 GZ2      -0.0220
      7 C10        -4.4910   53.4211   14.3253 C.3         1 GZ2       0.0123
      8 N6         -7.9651   54.7128   12.2620 N.pl3       1 GZ2      -0.2078
      9 C5         -8.3108   55.8638   11.6394 C.2         1 GZ2       0.2841
     10 N4         -7.6714   57.0087   11.3861 N.pl3       1 GZ2      -0.1321
     11 N3         -8.4602   57.7693   10.7729 N.2         1 GZ2      -0.0778
     12 N2         -9.5414   57.2105   10.6223 N.2         1 GZ2      -0.1598
     13 N1         -9.5281   56.0520   11.1239 N.2         1 GZ2      -0.2093
     14 H1         -5.5645   55.7781   12.2029 H           1 GZ2       0.0170
     15 H2         -6.6750   52.2399   12.8603 H           1 GZ2       0.0529
     16 H3         -7.9131   52.8688   13.9560 H           1 GZ2       0.0529
     17 H4         -5.8767   51.9576   15.1579 H           1 GZ2       0.0320
     18 H5         -6.2643   53.6346   15.5516 H           1 GZ2       0.0320
     19 H6         -3.9363   53.6945   15.2254 H           1 GZ2       0.0470
     20 H7         -3.9747   52.5855   13.8455 H           1 GZ2       0.0470
     21 H8         -8.6866   54.0656   12.3156 H           1 GZ2       0.2327
     22 H9         -6.7556   57.2287   11.6108 H           1 GZ2       0.2694
@<TRIPOS>BOND
     1     1     2   2
     2     2     3   1
     3     2     7   1
     4     3     4   2
     5     4     5   1
     6     4     8   1
     7     5     6   1
     8     6     7   1
     9     8     9   1
    10     9    10   1
    11     9    13   2
    12    10    11   1
    13    11    12   2
    14    12    13   1
    15     3    14   1
    16     5    15   1
    17     5    16   1
    18     6    17   1
    19     6    18   1
    20     7    19   1
    21     7    20   1
    22     8    21   1
    23    10    22   1
@<TRIPOS>SUBSTRUCTURE
     1  GZ2      2

