@<TRIPOS>MOLECULE
3g2z_ligand_073
    22    23
SMALL
GAST_HUCK
****
This file was generated by PARSER (from files_GN.cpp)

@<TRIPOS>ATOM
      1 O13         3.6337   41.1265   10.9162 O.2         1 GZ2      -0.4178
      2 C11         4.0117   42.2089   10.4856 C.2         1 GZ2       0.0775
      3 C12         3.3586   43.3395   10.8640 C.2         1 GZ2      -0.0164
      4 C7          3.5477   44.5314   10.2560 C.2         1 GZ2       0.0672
      5 C8          4.5150   44.7044    9.1701 C.3         1 GZ2       0.0190
      6 C9          5.6282   43.6223    9.2065 C.3         1 GZ2      -0.0220
      7 C10         5.0356   42.2063    9.4439 C.3         1 GZ2       0.0123
      8 N6          2.8390   45.5798   10.6515 N.pl3       1 GZ2      -0.2078
      9 C5          1.7576   46.0335    9.9888 C.2         1 GZ2       0.2841
     10 N4          0.9153   46.9820   10.3884 N.pl3       1 GZ2      -0.1321
     11 N3          0.0005   47.0930    9.5336 N.2         1 GZ2      -0.0778
     12 N2          0.2040   46.2886    8.6247 N.2         1 GZ2      -0.1598
     13 N1          1.2486   45.6094    8.8287 N.2         1 GZ2      -0.2093
     14 H1          2.6862   43.2710   11.5951 H           1 GZ2       0.0170
     15 H2          4.9934   45.6855    9.2479 H           1 GZ2       0.0529
     16 H3          3.9944   44.6574    8.2123 H           1 GZ2       0.0529
     17 H4          6.3109   43.8582   10.0285 H           1 GZ2       0.0320
     18 H5          6.2067   43.6452    8.2789 H           1 GZ2       0.0320
     19 H6          4.5999   41.8321    8.5122 H           1 GZ2       0.0470
     20 H7          5.8534   41.5355    9.7317 H           1 GZ2       0.0470
     21 H8          2.9991   45.9245   11.5393 H           1 GZ2       0.2327
     22 H9          0.9816   47.4867   11.2137 H           1 GZ2       0.2694
@<TRIPOS>BOND
     1     1     2   2
     2     2     3   1
     3     2     7   1
     4     3     4   2
     5     4     5   1
     6     4     8   1
     7     5     6   1
     8     6     7   1
     9     8     9   1
    10     9    10   1
    11     9    13   2
    12    10    11   1
    13    11    12   2
    14    12    13   1
    15     3    14   1
    16     5    15   1
    17     5    16   1
    18     6    17   1
    19     6    18   1
    20     7    19   1
    21     7    20   1
    22     8    21   1
    23    10    22   1
@<TRIPOS>SUBSTRUCTURE
     1  GZ2      2

