@<TRIPOS>MOLECULE
3g2z_ligand_074
    22    23
SMALL
GAST_HUCK
****
This file was generated by PARSER (from files_GN.cpp)

@<TRIPOS>ATOM
      1 O13        -7.1358   52.0565    7.5505 O.2         1 GZ2      -0.4178
      2 C11        -7.2116   51.9054    8.7630 C.2         1 GZ2       0.0775
      3 C12        -8.4435   51.8491    9.3466 C.2         1 GZ2      -0.0164
      4 C7         -8.6452   51.4733   10.6311 C.2         1 GZ2       0.0672
      5 C8         -7.5213   50.9752   11.4280 C.3         1 GZ2       0.0190
      6 C9         -6.1821   51.6552   11.0372 C.3         1 GZ2      -0.0220
      7 C10        -5.9808   51.6395    9.4978 C.3         1 GZ2       0.0123
      8 N6         -9.8505   51.3958   11.2180 N.pl3       1 GZ2      -0.2078
      9 C5        -10.9916   52.0619   10.9216 C.2         1 GZ2       0.2841
     10 N4        -12.1410   51.9080   11.5751 N.pl3       1 GZ2      -0.1321
     11 N3        -12.9864   52.6873   11.0682 N.2         1 GZ2      -0.0778
     12 N2        -12.4681   53.3213   10.1547 N.2         1 GZ2      -0.1598
     13 N1        -11.2553   53.0001   10.0064 N.2         1 GZ2      -0.2093
     14 H1         -9.2273   52.0677    8.7787 H           1 GZ2       0.0170
     15 H2         -7.4368   49.8960   11.2734 H           1 GZ2       0.0529
     16 H3         -7.6938   51.1499   12.4943 H           1 GZ2       0.0529
     17 H4         -5.3475   51.1483   11.5287 H           1 GZ2       0.0320
     18 H5         -6.1979   52.6926   11.3855 H           1 GZ2       0.0320
     19 H6         -5.2300   52.3910    9.2375 H           1 GZ2       0.0470
     20 H7         -5.6019   50.6600    9.1931 H           1 GZ2       0.0470
     21 H8         -9.8973   50.8325   12.0076 H           1 GZ2       0.2327
     22 H9        -12.2957   51.3048   12.3184 H           1 GZ2       0.2694
@<TRIPOS>BOND
     1     1     2   2
     2     2     3   1
     3     2     7   1
     4     3     4   2
     5     4     5   1
     6     4     8   1
     7     5     6   1
     8     6     7   1
     9     8     9   1
    10     9    10   1
    11     9    13   2
    12    10    11   1
    13    11    12   2
    14    12    13   1
    15     3    14   1
    16     5    15   1
    17     5    16   1
    18     6    17   1
    19     6    18   1
    20     7    19   1
    21     7    20   1
    22     8    21   1
    23    10    22   1
@<TRIPOS>SUBSTRUCTURE
     1  GZ2      2

