@<TRIPOS>MOLECULE
3g2z_ligand_006
    22    23
SMALL
GAST_HUCK
****
This file was generated by PARSER (from files_GN.cpp)

@<TRIPOS>ATOM
      1 O13       -12.5474   55.3634   11.1947 O.2         1 GZ2      -0.4178
      2 C11       -11.7047   56.2423   11.0390 C.2         1 GZ2       0.0775
      3 C12       -10.9512   56.2438    9.9076 C.2         1 GZ2      -0.0164
      4 C7        -10.1124   57.2578    9.5915 C.2         1 GZ2       0.0672
      5 C8        -10.0010   58.4630   10.4147 C.3         1 GZ2       0.0190
      6 C9        -10.4152   58.2128   11.8900 C.3         1 GZ2      -0.0220
      7 C10       -11.7142   57.3646   11.9722 C.3         1 GZ2       0.0123
      8 N6         -9.5447   57.2565    8.3947 N.pl3       1 GZ2      -0.2078
      9 C5         -8.2992   56.7755    8.1814 C.2         1 GZ2       0.2841
     10 N4         -7.6508   56.7836    7.0197 N.pl3       1 GZ2      -0.1321
     11 N3         -6.5208   56.2532    7.2069 N.2         1 GZ2      -0.0778
     12 N2         -6.4161   55.9032    8.3725 N.2         1 GZ2      -0.1598
     13 N1         -7.4579   56.1846    9.0305 N.2         1 GZ2      -0.2093
     14 H1        -11.0296   55.4693    9.2839 H           1 GZ2       0.0170
     15 H2        -10.6427   59.2285    9.9729 H           1 GZ2       0.0529
     16 H3         -8.9728   58.8389   10.4021 H           1 GZ2       0.0529
     17 H4        -10.5573   59.1670   12.3982 H           1 GZ2       0.0320
     18 H5         -9.6070   57.6794   12.3949 H           1 GZ2       0.0320
     19 H6        -11.8246   56.9963   12.9959 H           1 GZ2       0.0470
     20 H7        -12.5764   57.9989   11.7458 H           1 GZ2       0.0470
     21 H8         -9.9906   57.7182    7.6771 H           1 GZ2       0.2327
     22 H9         -7.9961   57.1116    6.1758 H           1 GZ2       0.2694
@<TRIPOS>BOND
     1     1     2   2
     2     2     3   1
     3     2     7   1
     4     3     4   2
     5     4     5   1
     6     4     8   1
     7     5     6   1
     8     6     7   1
     9     8     9   1
    10     9    10   1
    11     9    13   2
    12    10    11   1
    13    11    12   2
    14    12    13   1
    15     3    14   1
    16     5    15   1
    17     5    16   1
    18     6    17   1
    19     6    18   1
    20     7    19   1
    21     7    20   1
    22     8    21   1
    23    10    22   1
@<TRIPOS>SUBSTRUCTURE
     1  GZ2      2

