@<TRIPOS>MOLECULE
3g2z_ligand_055
    22    23
SMALL
GAST_HUCK
****
This file was generated by PARSER (from files_GN.cpp)

@<TRIPOS>ATOM
      1 O13        -3.6169   47.8650   11.5230 O.2         1 GZ2      -0.4178
      2 C11        -2.4463   48.1743   11.3441 C.2         1 GZ2       0.0775
      3 C12        -2.1061   49.4958   11.3509 C.2         1 GZ2      -0.0164
      4 C7         -0.9237   49.9608   10.8840 C.2         1 GZ2       0.0672
      5 C8          0.0043   49.0451   10.2215 C.3         1 GZ2       0.0190
      6 C9         -0.0471   47.6236   10.8423 C.3         1 GZ2      -0.0220
      7 C10        -1.5149   47.1239   10.9473 C.3         1 GZ2       0.0123
      8 N6         -0.6045   51.2631   10.8324 N.pl3       1 GZ2      -0.2078
      9 C5         -0.9893   52.2529   11.6673 C.2         1 GZ2       0.2841
     10 N4         -0.6549   53.5341   11.5293 N.pl3       1 GZ2      -0.1321
     11 N3         -1.1554   54.1685   12.4899 N.2         1 GZ2      -0.0778
     12 N2         -1.7666   53.3983   13.2235 N.2         1 GZ2      -0.1598
     13 N1         -1.7135   52.2148   12.7907 N.2         1 GZ2      -0.2093
     14 H1         -2.7833   50.1430   11.6808 H           1 GZ2       0.0170
     15 H2          1.0320   49.4156   10.2865 H           1 GZ2       0.0529
     16 H3         -0.2704   48.9849    9.1657 H           1 GZ2       0.0529
     17 H4          0.3924   47.6564   11.8439 H           1 GZ2       0.0320
     18 H5          0.5425   46.9297   10.2383 H           1 GZ2       0.0320
     19 H6         -1.8299   46.7328    9.9766 H           1 GZ2       0.0470
     20 H7         -1.5554   46.3053   11.6717 H           1 GZ2       0.0470
     21 H8          0.0418   51.5195   10.1540 H           1 GZ2       0.2327
     22 H9         -0.1204   53.9142   10.8146 H           1 GZ2       0.2694
@<TRIPOS>BOND
     1     1     2   2
     2     2     3   1
     3     2     7   1
     4     3     4   2
     5     4     5   1
     6     4     8   1
     7     5     6   1
     8     6     7   1
     9     8     9   1
    10     9    10   1
    11     9    13   2
    12    10    11   1
    13    11    12   2
    14    12    13   1
    15     3    14   1
    16     5    15   1
    17     5    16   1
    18     6    17   1
    19     6    18   1
    20     7    19   1
    21     7    20   1
    22     8    21   1
    23    10    22   1
@<TRIPOS>SUBSTRUCTURE
     1  GZ2      2

