@<TRIPOS>MOLECULE
3g2z_ligand_009
    22    23
SMALL
GAST_HUCK
****
This file was generated by PARSER (from files_GN.cpp)

@<TRIPOS>ATOM
      1 O13        -3.2186   55.2427   13.0975 O.2         1 GZ2      -0.4178
      2 C11        -3.1768   54.0191   13.1236 C.2         1 GZ2       0.0775
      3 C12        -2.0178   53.4028   12.7538 C.2         1 GZ2      -0.0164
      4 C7         -1.9036   52.0644   12.5904 C.2         1 GZ2       0.0672
      5 C8         -3.0333   51.1671   12.8453 C.3         1 GZ2       0.0190
      6 C9         -4.1956   51.8145   13.6504 C.3         1 GZ2      -0.0220
      7 C10        -4.4313   53.2890   13.2283 C.3         1 GZ2       0.0123
      8 N6         -0.7836   51.4649   12.1594 N.pl3       1 GZ2      -0.2078
      9 C5         -0.2152   51.5692   10.9369 C.2         1 GZ2       0.2841
     10 N4          0.8919   50.9432   10.5463 N.pl3       1 GZ2      -0.1321
     11 N3          1.0777   51.1982    9.3320 N.2         1 GZ2      -0.0778
     12 N2          0.1970   51.9510    8.9277 N.2         1 GZ2      -0.1598
     13 N1         -0.6242   52.2265    9.8459 N.2         1 GZ2      -0.2093
     14 H1         -1.2162   53.9762   12.6213 H           1 GZ2       0.0170
     15 H2         -2.6969   50.2821   13.3958 H           1 GZ2       0.0529
     16 H3         -3.4172   50.8288   11.8770 H           1 GZ2       0.0529
     17 H4         -3.9415   51.7947   14.7120 H           1 GZ2       0.0320
     18 H5         -5.1132   51.2347   13.5163 H           1 GZ2       0.0320
     19 H6         -4.9322   53.3150   12.2569 H           1 GZ2       0.0470
     20 H7         -5.0844   53.7644   13.9659 H           1 GZ2       0.0470
     21 H8         -0.3894   50.8006   12.7528 H           1 GZ2       0.2327
     22 H9          1.4634   50.3824   11.0895 H           1 GZ2       0.2694
@<TRIPOS>BOND
     1     1     2   2
     2     2     3   1
     3     2     7   1
     4     3     4   2
     5     4     5   1
     6     4     8   1
     7     5     6   1
     8     6     7   1
     9     8     9   1
    10     9    10   1
    11     9    13   2
    12    10    11   1
    13    11    12   2
    14    12    13   1
    15     3    14   1
    16     5    15   1
    17     5    16   1
    18     6    17   1
    19     6    18   1
    20     7    19   1
    21     7    20   1
    22     8    21   1
    23    10    22   1
@<TRIPOS>SUBSTRUCTURE
     1  GZ2      2

