@<TRIPOS>MOLECULE
3g2z_ligand_033
    22    23
SMALL
GAST_HUCK
****
This file was generated by PARSER (from files_GN.cpp)

@<TRIPOS>ATOM
      1 O13         1.6879   47.2280   10.4354 O.2         1 GZ2      -0.4178
      2 C11         0.6481   47.7975   10.7359 C.2         1 GZ2       0.0775
      3 C12         0.5560   49.1488   10.5514 C.2         1 GZ2      -0.0164
      4 C7         -0.3930   49.9172   11.1315 C.2         1 GZ2       0.0672
      5 C8         -1.4611   49.3154   11.9377 C.3         1 GZ2       0.0190
      6 C9         -1.6991   47.8146   11.6043 C.3         1 GZ2      -0.0220
      7 C10        -0.3467   47.0553   11.4973 C.3         1 GZ2       0.0123
      8 N6         -0.3347   51.2410   10.9224 N.pl3       1 GZ2      -0.2078
      9 C5         -0.8373   52.2347   11.6987 C.2         1 GZ2       0.2841
     10 N4         -0.7446   53.5389   11.4343 N.pl3       1 GZ2      -0.1321
     11 N3         -1.2845   54.1625   12.3816 N.2         1 GZ2      -0.0778
     12 N2         -1.7092   53.3687   13.2186 N.2         1 GZ2      -0.1598
     13 N1         -1.4783   52.1765   12.8705 N.2         1 GZ2      -0.2093
     14 H1          1.2518   49.5897    9.9893 H           1 GZ2       0.0170
     15 H2         -2.3996   49.8405   11.7574 H           1 GZ2       0.0529
     16 H3         -1.2072   49.4115   12.9942 H           1 GZ2       0.0529
     17 H4         -2.2229   47.7388   10.6456 H           1 GZ2       0.0320
     18 H5         -2.3232   47.3517   12.3689 H           1 GZ2       0.0320
     19 H6          0.0526   46.8857   12.5010 H           1 GZ2       0.0470
     20 H7         -0.5175   46.0822   11.0264 H           1 GZ2       0.0470
     21 H8          0.1769   51.5282   10.1481 H           1 GZ2       0.2327
     22 H9         -0.3442   53.9412   10.6461 H           1 GZ2       0.2694
@<TRIPOS>BOND
     1     1     2   2
     2     2     3   1
     3     2     7   1
     4     3     4   2
     5     4     5   1
     6     4     8   1
     7     5     6   1
     8     6     7   1
     9     8     9   1
    10     9    10   1
    11     9    13   2
    12    10    11   1
    13    11    12   2
    14    12    13   1
    15     3    14   1
    16     5    15   1
    17     5    16   1
    18     6    17   1
    19     6    18   1
    20     7    19   1
    21     7    20   1
    22     8    21   1
    23    10    22   1
@<TRIPOS>SUBSTRUCTURE
     1  GZ2      2

