@<TRIPOS>MOLECULE
3g2z_ligand_070
    22    23
SMALL
GAST_HUCK
****
This file was generated by PARSER (from files_GN.cpp)

@<TRIPOS>ATOM
      1 O13        -5.7023   50.1105   12.1041 O.2         1 GZ2      -0.4178
      2 C11        -5.9704   50.7992   11.1281 C.2         1 GZ2       0.0775
      3 C12        -6.4171   52.0758   11.3387 C.2         1 GZ2      -0.0164
      4 C7         -6.5347   52.9923   10.3487 C.2         1 GZ2       0.0672
      5 C8         -6.1716   52.6490    8.9765 C.3         1 GZ2       0.0190
      6 C9         -6.2666   51.1259    8.6719 C.3         1 GZ2      -0.0220
      7 C10        -5.6285   50.2922    9.8063 C.3         1 GZ2       0.0123
      8 N6         -6.8920   54.2777   10.5260 N.pl3       1 GZ2      -0.2078
      9 C5         -7.2262   54.9488   11.6476 C.2         1 GZ2       0.2841
     10 N4         -7.5554   56.2395   11.6736 N.pl3       1 GZ2      -0.1321
     11 N3         -7.8230   56.5527   12.8644 N.2         1 GZ2      -0.0778
     12 N2         -7.6889   55.5694   13.5903 N.2         1 GZ2      -0.1598
     13 N1         -7.3237   54.5477   12.9189 N.2         1 GZ2      -0.2093
     14 H1         -6.6457   52.3445   12.2731 H           1 GZ2       0.0170
     15 H2         -5.1452   52.9789    8.8055 H           1 GZ2       0.0529
     16 H3         -6.8176   53.1709    8.2683 H           1 GZ2       0.0529
     17 H4         -5.7727   50.9072    7.7236 H           1 GZ2       0.0320
     18 H5         -7.3199   50.8476    8.5722 H           1 GZ2       0.0320
     19 H6         -5.9687   49.2584    9.7074 H           1 GZ2       0.0470
     20 H7         -4.5412   50.2980    9.6954 H           1 GZ2       0.0470
     21 H8         -6.9357   54.8137    9.7176 H           1 GZ2       0.2327
     22 H9         -7.5804   56.8352   10.9040 H           1 GZ2       0.2694
@<TRIPOS>BOND
     1     1     2   2
     2     2     3   1
     3     2     7   1
     4     3     4   2
     5     4     5   1
     6     4     8   1
     7     5     6   1
     8     6     7   1
     9     8     9   1
    10     9    10   1
    11     9    13   2
    12    10    11   1
    13    11    12   2
    14    12    13   1
    15     3    14   1
    16     5    15   1
    17     5    16   1
    18     6    17   1
    19     6    18   1
    20     7    19   1
    21     7    20   1
    22     8    21   1
    23    10    22   1
@<TRIPOS>SUBSTRUCTURE
     1  GZ2      2

