@<TRIPOS>MOLECULE
3g2z_ligand_048
    22    23
SMALL
GAST_HUCK
****
This file was generated by PARSER (from files_GN.cpp)

@<TRIPOS>ATOM
      1 O13        -8.5605   51.0963   12.2637 O.2         1 GZ2      -0.4178
      2 C11        -7.5200   51.7401   12.1828 C.2         1 GZ2       0.0775
      3 C12        -7.6008   53.1034   12.1652 C.2         1 GZ2      -0.0164
      4 C7         -6.5834   53.8972   11.7606 C.2         1 GZ2       0.0672
      5 C8         -5.2830   53.3302   11.3877 C.3         1 GZ2       0.0190
      6 C9         -5.0405   51.9097   11.9579 C.3         1 GZ2      -0.0220
      7 C10        -6.3017   51.0264   11.8188 C.3         1 GZ2       0.0123
      8 N6         -6.6641   55.2246   11.6589 N.pl3       1 GZ2      -0.2078
      9 C5         -7.7542   55.9994   11.4896 C.2         1 GZ2       0.2841
     10 N4         -7.6974   57.3263   11.3807 N.pl3       1 GZ2      -0.1321
     11 N3         -8.8607   57.7607   11.1756 N.2         1 GZ2      -0.0778
     12 N2         -9.6474   56.8147   11.1491 N.2         1 GZ2      -0.1598
     13 N1         -9.0510   55.7086   11.3307 N.2         1 GZ2      -0.2093
     14 H1         -8.4476   53.5295   12.4817 H           1 GZ2       0.0170
     15 H2         -4.4751   53.9765   11.7372 H           1 GZ2       0.0529
     16 H3         -5.2359   53.2953   10.2976 H           1 GZ2       0.0529
     17 H4         -4.7786   51.9940   13.0152 H           1 GZ2       0.0320
     18 H5         -4.1985   51.4411   11.4422 H           1 GZ2       0.0320
     19 H6         -6.3976   50.6815   10.7874 H           1 GZ2       0.0470
     20 H7         -6.1820   50.1507   12.4574 H           1 GZ2       0.0470
     21 H8         -5.8229   55.6992   11.6113 H           1 GZ2       0.2327
     22 H9         -6.8804   57.8562   11.4449 H           1 GZ2       0.2694
@<TRIPOS>BOND
     1     1     2   2
     2     2     3   1
     3     2     7   1
     4     3     4   2
     5     4     5   1
     6     4     8   1
     7     5     6   1
     8     6     7   1
     9     8     9   1
    10     9    10   1
    11     9    13   2
    12    10    11   1
    13    11    12   2
    14    12    13   1
    15     3    14   1
    16     5    15   1
    17     5    16   1
    18     6    17   1
    19     6    18   1
    20     7    19   1
    21     7    20   1
    22     8    21   1
    23    10    22   1
@<TRIPOS>SUBSTRUCTURE
     1  GZ2      2

