@<TRIPOS>MOLECULE
3g2z_ligand_063
    22    23
SMALL
GAST_HUCK
****
This file was generated by PARSER (from files_GN.cpp)

@<TRIPOS>ATOM
      1 O13        -5.4786   51.5898   11.9812 O.2         1 GZ2      -0.4178
      2 C11        -6.3669   50.8860   11.5190 C.2         1 GZ2       0.0775
      3 C12        -7.6441   51.0589   11.9654 C.2         1 GZ2      -0.0164
      4 C7         -8.7114   50.5411   11.3253 C.2         1 GZ2       0.0672
      5 C8         -8.5684   49.7535   10.0990 C.3         1 GZ2       0.0190
      6 C9         -7.1935   49.0384   10.0300 C.3         1 GZ2      -0.0220
      7 C10        -6.0411   50.0157   10.3933 C.3         1 GZ2       0.0123
      8 N6         -9.9313   50.7703   11.8015 N.pl3       1 GZ2      -0.2078
      9 C5        -10.8320   51.5593   11.1818 C.2         1 GZ2       0.2841
     10 N4        -12.0884   51.7400   11.5737 N.pl3       1 GZ2      -0.1321
     11 N3        -12.6316   52.5343   10.7665 N.2         1 GZ2      -0.0778
     12 N2        -11.8212   52.8719    9.9075 N.2         1 GZ2      -0.1598
     13 N1        -10.6991   52.3194   10.0899 N.2         1 GZ2      -0.2093
     14 H1         -7.7933   51.6169   12.7777 H           1 GZ2       0.0170
     15 H2         -8.6715   50.4193    9.2391 H           1 GZ2       0.0529
     16 H3         -9.3582   48.9988   10.0400 H           1 GZ2       0.0529
     17 H4         -7.0366   48.6276    9.0297 H           1 GZ2       0.0320
     18 H5         -7.1919   48.2054   10.7395 H           1 GZ2       0.0320
     19 H6         -5.1513   49.4272   10.6333 H           1 GZ2       0.0470
     20 H7         -5.8124   50.6392    9.5241 H           1 GZ2       0.0470
     21 H8        -10.1858   50.3685   12.6486 H           1 GZ2       0.2327
     22 H9        -12.5012   51.3092   12.3375 H           1 GZ2       0.2694
@<TRIPOS>BOND
     1     1     2   2
     2     2     3   1
     3     2     7   1
     4     3     4   2
     5     4     5   1
     6     4     8   1
     7     5     6   1
     8     6     7   1
     9     8     9   1
    10     9    10   1
    11     9    13   2
    12    10    11   1
    13    11    12   2
    14    12    13   1
    15     3    14   1
    16     5    15   1
    17     5    16   1
    18     6    17   1
    19     6    18   1
    20     7    19   1
    21     7    20   1
    22     8    21   1
    23    10    22   1
@<TRIPOS>SUBSTRUCTURE
     1  GZ2      2

