@<TRIPOS>MOLECULE
3g2z_ligand_067
    22    23
SMALL
GAST_HUCK
****
This file was generated by PARSER (from files_GN.cpp)

@<TRIPOS>ATOM
      1 O13        -2.7553   47.4990   11.9621 O.2         1 GZ2      -0.4178
      2 C11        -3.4657   48.4570   11.6832 C.2         1 GZ2       0.0775
      3 C12        -3.3023   49.6231   12.3769 C.2         1 GZ2      -0.0164
      4 C7         -4.2082   50.6238   12.3428 C.2         1 GZ2       0.0672
      5 C8         -5.4437   50.5020   11.5684 C.3         1 GZ2       0.0190
      6 C9         -5.2658   49.5624   10.3449 C.3         1 GZ2      -0.0220
      7 C10        -4.5733   48.2363   10.7579 C.3         1 GZ2       0.0123
      8 N6         -4.1236   51.6520   13.1856 N.pl3       1 GZ2      -0.2078
      9 C5         -3.4152   52.7808   12.9614 C.2         1 GZ2       0.2841
     10 N4         -2.5743   53.1219   11.9806 N.pl3       1 GZ2      -0.1321
     11 N3         -2.2117   54.3095   12.1810 N.2         1 GZ2      -0.0778
     12 N2         -2.7482   54.7417   13.1961 N.2         1 GZ2      -0.1598
     13 N1         -3.4952   53.8715   13.7273 N.2         1 GZ2      -0.2093
     14 H1         -2.5197   49.7097   12.9874 H           1 GZ2       0.0170
     15 H2         -5.7551   51.4845   11.2014 H           1 GZ2       0.0529
     16 H3         -6.2342   50.1205   12.2177 H           1 GZ2       0.0529
     17 H4         -4.6366   50.0674    9.6065 H           1 GZ2       0.0320
     18 H5         -6.2328   49.3547    9.8772 H           1 GZ2       0.0320
     19 H6         -5.3087   47.5728   11.2229 H           1 GZ2       0.0470
     20 H7         -4.2035   47.7412    9.8550 H           1 GZ2       0.0470
     21 H8         -4.7592   51.6721   13.9174 H           1 GZ2       0.2327
     22 H9         -2.2949   52.5667   11.2368 H           1 GZ2       0.2694
@<TRIPOS>BOND
     1     1     2   2
     2     2     3   1
     3     2     7   1
     4     3     4   2
     5     4     5   1
     6     4     8   1
     7     5     6   1
     8     6     7   1
     9     8     9   1
    10     9    10   1
    11     9    13   2
    12    10    11   1
    13    11    12   2
    14    12    13   1
    15     3    14   1
    16     5    15   1
    17     5    16   1
    18     6    17   1
    19     6    18   1
    20     7    19   1
    21     7    20   1
    22     8    21   1
    23    10    22   1
@<TRIPOS>SUBSTRUCTURE
     1  GZ2      2

