@<TRIPOS>MOLECULE
3g2z_ligand_044
    22    23
SMALL
GAST_HUCK
****
This file was generated by PARSER (from files_GN.cpp)

@<TRIPOS>ATOM
      1 O13        -6.6466   56.0394   10.0145 O.2         1 GZ2      -0.4178
      2 C11        -7.4380   56.2744    9.1102 C.2         1 GZ2       0.0775
      3 C12        -8.6656   56.7835    9.4194 C.2         1 GZ2      -0.0164
      4 C7         -9.6784   56.8673    8.5283 C.2         1 GZ2       0.0672
      5 C8         -9.5074   56.4204    7.1452 C.3         1 GZ2       0.0190
      6 C9         -8.0276   56.4190    6.6778 C.3         1 GZ2      -0.0220
      7 C10        -7.0844   55.8388    7.7658 C.3         1 GZ2       0.0123
      8 N6        -10.8754   57.3730    8.8478 N.pl3       1 GZ2      -0.2078
      9 C5        -11.6309   57.0508    9.9219 C.2         1 GZ2       0.2841
     10 N4        -11.4232   56.1527   10.8844 N.pl3       1 GZ2      -0.1321
     11 N3        -12.4216   56.1659   11.6457 N.2         1 GZ2      -0.0778
     12 N2        -13.2370   56.9921   11.2462 N.2         1 GZ2      -0.1598
     13 N1        -12.8295   57.5679   10.1968 N.2         1 GZ2      -0.2093
     14 H1         -8.8087   57.1409   10.3381 H           1 GZ2       0.0170
     15 H2        -10.0828   57.0510    6.4600 H           1 GZ2       0.0529
     16 H3         -9.9026   55.4040    7.0737 H           1 GZ2       0.0529
     17 H4         -7.7298   57.4479    6.4601 H           1 GZ2       0.0320
     18 H5         -7.9284   55.8416    5.7551 H           1 GZ2       0.0320
     19 H6         -7.1231   54.7468    7.7350 H           1 GZ2       0.0470
     20 H7         -6.0601   56.1496    7.5401 H           1 GZ2       0.0470
     21 H8        -11.2774   57.9684    8.1956 H           1 GZ2       0.2327
     22 H9        -10.6534   55.5682   10.9641 H           1 GZ2       0.2694
@<TRIPOS>BOND
     1     1     2   2
     2     2     3   1
     3     2     7   1
     4     3     4   2
     5     4     5   1
     6     4     8   1
     7     5     6   1
     8     6     7   1
     9     8     9   1
    10     9    10   1
    11     9    13   2
    12    10    11   1
    13    11    12   2
    14    12    13   1
    15     3    14   1
    16     5    15   1
    17     5    16   1
    18     6    17   1
    19     6    18   1
    20     7    19   1
    21     7    20   1
    22     8    21   1
    23    10    22   1
@<TRIPOS>SUBSTRUCTURE
     1  GZ2      2

