@<TRIPOS>MOLECULE
3g2z_ligand_027
    22    23
SMALL
GAST_HUCK
****
This file was generated by PARSER (from files_GN.cpp)

@<TRIPOS>ATOM
      1 O13        -8.2391   51.6215   11.8887 O.2         1 GZ2      -0.4178
      2 C11        -7.3217   51.8080   12.6698 C.2         1 GZ2       0.0775
      3 C12        -6.1925   51.0466   12.5737 C.2         1 GZ2      -0.0164
      4 C7         -5.0329   51.3563   13.1992 C.2         1 GZ2       0.0672
      5 C8         -4.9536   52.5208   14.0887 C.3         1 GZ2       0.0190
      6 C9         -6.3259   52.9633   14.6515 C.3         1 GZ2      -0.0220
      7 C10        -7.3914   52.9874   13.5258 C.3         1 GZ2       0.0123
      8 N6         -3.9655   50.5796   12.9201 N.pl3       1 GZ2      -0.2078
      9 C5         -2.6516   50.9020   13.0217 C.2         1 GZ2       0.2841
     10 N4         -1.6390   50.0749   12.7341 N.pl3       1 GZ2      -0.1321
     11 N3         -0.5679   50.7060   12.9362 N.2         1 GZ2      -0.0778
     12 N2         -0.8126   51.8378   13.3110 N.2         1 GZ2      -0.1598
     13 N1         -2.0546   52.0361   13.3913 N.2         1 GZ2      -0.2093
     14 H1         -6.2282   50.2472   11.9809 H           1 GZ2       0.0170
     15 H2         -4.5085   53.3462   13.5267 H           1 GZ2       0.0529
     16 H3         -4.3105   52.2943   14.9461 H           1 GZ2       0.0529
     17 H4         -6.2335   53.9478   15.1196 H           1 GZ2       0.0320
     18 H5         -6.6329   52.2523   15.4268 H           1 GZ2       0.0320
     19 H6         -8.3816   53.0495   13.9863 H           1 GZ2       0.0470
     20 H7         -7.2408   53.8800   12.9122 H           1 GZ2       0.0470
     21 H8         -4.1547   49.7188   12.5333 H           1 GZ2       0.2327
     22 H9         -1.7112   49.1443   12.4854 H           1 GZ2       0.2694
@<TRIPOS>BOND
     1     1     2   2
     2     2     3   1
     3     2     7   1
     4     3     4   2
     5     4     5   1
     6     4     8   1
     7     5     6   1
     8     6     7   1
     9     8     9   1
    10     9    10   1
    11     9    13   2
    12    10    11   1
    13    11    12   2
    14    12    13   1
    15     3    14   1
    16     5    15   1
    17     5    16   1
    18     6    17   1
    19     6    18   1
    20     7    19   1
    21     7    20   1
    22     8    21   1
    23    10    22   1
@<TRIPOS>SUBSTRUCTURE
     1  GZ2      2

