@<TRIPOS>MOLECULE
3g2z_ligand_049
    22    23
SMALL
GAST_HUCK
****
This file was generated by PARSER (from files_GN.cpp)

@<TRIPOS>ATOM
      1 O13        -1.2672   48.7657    9.1410 O.2         1 GZ2      -0.4178
      2 C11        -1.0943   49.2900   10.2316 C.2         1 GZ2       0.0775
      3 C12        -1.3992   48.5837   11.3574 C.2         1 GZ2      -0.0164
      4 C7         -1.4478   49.1312   12.5926 C.2         1 GZ2       0.0672
      5 C8         -1.2055   50.5687   12.7869 C.3         1 GZ2       0.0190
      6 C9         -0.3231   51.1857   11.6637 C.3         1 GZ2      -0.0220
      7 C10        -0.7977   50.7179   10.2606 C.3         1 GZ2       0.0123
      8 N6         -1.8344   48.4593   13.6901 N.pl3       1 GZ2      -0.2078
      9 C5         -1.5344   47.1743   14.0134 C.2         1 GZ2       0.2841
     10 N4         -1.9049   46.5709   15.1356 N.pl3       1 GZ2      -0.1321
     11 N3         -1.4352   45.4046   15.1213 N.2         1 GZ2      -0.0778
     12 N2         -0.7998   45.2314   14.0949 N.2         1 GZ2      -0.1598
     13 N1         -0.8031   46.2612   13.3743 N.2         1 GZ2      -0.2093
     14 H1         -1.6384   47.6281   11.2555 H           1 GZ2       0.0170
     15 H2         -0.6894   50.7324   13.7371 H           1 GZ2       0.0529
     16 H3         -2.1657   51.0876   12.8255 H           1 GZ2       0.0529
     17 H4          0.7111   50.8589   11.8116 H           1 GZ2       0.0320
     18 H5         -0.3474   52.2746   11.7266 H           1 GZ2       0.0320
     19 H6         -1.6961   51.2732    9.9802 H           1 GZ2       0.0470
     20 H7         -0.0116   50.9563    9.5392 H           1 GZ2       0.0470
     21 H8         -2.2910   48.9690   14.3689 H           1 GZ2       0.2327
     22 H9         -2.4401   46.9639   15.8485 H           1 GZ2       0.2694
@<TRIPOS>BOND
     1     1     2   2
     2     2     3   1
     3     2     7   1
     4     3     4   2
     5     4     5   1
     6     4     8   1
     7     5     6   1
     8     6     7   1
     9     8     9   1
    10     9    10   1
    11     9    13   2
    12    10    11   1
    13    11    12   2
    14    12    13   1
    15     3    14   1
    16     5    15   1
    17     5    16   1
    18     6    17   1
    19     6    18   1
    20     7    19   1
    21     7    20   1
    22     8    21   1
    23    10    22   1
@<TRIPOS>SUBSTRUCTURE
     1  GZ2      2

