@<TRIPOS>MOLECULE
3g2z_ligand_045
    22    23
SMALL
GAST_HUCK
****
This file was generated by PARSER (from files_GN.cpp)

@<TRIPOS>ATOM
      1 O13        -3.0879   49.1516   13.2955 O.2         1 GZ2      -0.4178
      2 C11        -2.6036   48.9353   12.1921 C.2         1 GZ2       0.0775
      3 C12        -1.3140   49.3215   11.9559 C.2         1 GZ2      -0.0164
      4 C7         -0.7872   49.3994   10.7169 C.2         1 GZ2       0.0672
      5 C8         -1.5617   49.0100    9.5320 C.3         1 GZ2       0.0190
      6 C9         -2.7136   48.0225    9.8730 C.3         1 GZ2      -0.0220
      7 C10        -3.4974   48.4926   11.1275 C.3         1 GZ2       0.0123
      8 N6          0.4541   49.8567   10.5637 N.pl3       1 GZ2      -0.2078
      9 C5          0.7467   51.1116   10.1685 C.2         1 GZ2       0.2841
     10 N4          1.9771   51.5799    9.9835 N.pl3       1 GZ2      -0.1321
     11 N3          1.8830   52.7861    9.6396 N.2         1 GZ2      -0.0778
     12 N2          0.7004   53.1116    9.5902 N.2         1 GZ2      -0.1598
     13 N1         -0.0565   52.1462    9.8981 N.2         1 GZ2      -0.2093
     14 H1         -0.7538   49.6101   12.7285 H           1 GZ2       0.0170
     15 H2         -0.9032   48.5272    8.8060 H           1 GZ2       0.0529
     16 H3         -1.9854   49.9034    9.0664 H           1 GZ2       0.0529
     17 H4         -2.2856   47.0362   10.0802 H           1 GZ2       0.0320
     18 H5         -3.3933   47.9227    9.0221 H           1 GZ2       0.0320
     19 H6         -4.1621   49.3178   10.8553 H           1 GZ2       0.0470
     20 H7         -4.1180   47.6649   11.4843 H           1 GZ2       0.0470
     21 H8          1.2010   49.2902   10.8292 H           1 GZ2       0.2327
     22 H9          2.7909   51.0627   10.0968 H           1 GZ2       0.2694
@<TRIPOS>BOND
     1     1     2   2
     2     2     3   1
     3     2     7   1
     4     3     4   2
     5     4     5   1
     6     4     8   1
     7     5     6   1
     8     6     7   1
     9     8     9   1
    10     9    10   1
    11     9    13   2
    12    10    11   1
    13    11    12   2
    14    12    13   1
    15     3    14   1
    16     5    15   1
    17     5    16   1
    18     6    17   1
    19     6    18   1
    20     7    19   1
    21     7    20   1
    22     8    21   1
    23    10    22   1
@<TRIPOS>SUBSTRUCTURE
     1  GZ2      2

