@<TRIPOS>MOLECULE
3g2z_ligand_011
    22    23
SMALL
GAST_HUCK
****
This file was generated by PARSER (from files_GN.cpp)

@<TRIPOS>ATOM
      1 O13        -1.3422   47.2979   12.3482 O.2         1 GZ2      -0.4178
      2 C11        -1.3521   48.5253   12.2952 C.2         1 GZ2       0.0775
      3 C12        -0.3675   49.1634   11.5950 C.2         1 GZ2      -0.0164
      4 C7         -0.1981   50.5057   11.6175 C.2         1 GZ2       0.0672
      5 C8         -0.9639   51.3153   12.5761 C.3         1 GZ2       0.0190
      6 C9         -2.4013   50.7652   12.7625 C.3         1 GZ2      -0.0220
      7 C10        -2.3693   49.2400   13.0649 C.3         1 GZ2       0.0123
      8 N6          0.8269   51.0071   10.9093 N.pl3       1 GZ2      -0.2078
      9 C5          0.8542   52.1827   10.2390 C.2         1 GZ2       0.2841
     10 N4          1.8909   52.6346    9.5369 N.pl3       1 GZ2      -0.1321
     11 N3          1.5635   53.7399    9.0291 N.2         1 GZ2      -0.0778
     12 N2          0.4043   54.0142    9.3299 N.2         1 GZ2      -0.1598
     13 N1         -0.0973   53.1082   10.0593 N.2         1 GZ2      -0.2093
     14 H1          0.2250   48.6158   11.0129 H           1 GZ2       0.0170
     15 H2         -1.0299   52.3617   12.2847 H           1 GZ2       0.0529
     16 H3         -0.4524   51.2766   13.5420 H           1 GZ2       0.0529
     17 H4         -2.9703   50.9394   11.8443 H           1 GZ2       0.0320
     18 H5         -2.9036   51.2899   13.5800 H           1 GZ2       0.0320
     19 H6         -2.1751   49.0832   14.1317 H           1 GZ2       0.0470
     20 H7         -3.3564   48.8213   12.8349 H           1 GZ2       0.0470
     21 H8          1.5997   50.4182   10.7841 H           1 GZ2       0.2327
     22 H9          2.7566   52.1970    9.4287 H           1 GZ2       0.2694
@<TRIPOS>BOND
     1     1     2   2
     2     2     3   1
     3     2     7   1
     4     3     4   2
     5     4     5   1
     6     4     8   1
     7     5     6   1
     8     6     7   1
     9     8     9   1
    10     9    10   1
    11     9    13   2
    12    10    11   1
    13    11    12   2
    14    12    13   1
    15     3    14   1
    16     5    15   1
    17     5    16   1
    18     6    17   1
    19     6    18   1
    20     7    19   1
    21     7    20   1
    22     8    21   1
    23    10    22   1
@<TRIPOS>SUBSTRUCTURE
     1  GZ2      2

