@<TRIPOS>MOLECULE
3g2z_ligand_071
    22    23
SMALL
GAST_HUCK
****
This file was generated by PARSER (from files_GN.cpp)

@<TRIPOS>ATOM
      1 O13        -4.7005   50.4009    9.6226 O.2         1 GZ2      -0.4178
      2 C11        -4.8229   50.8246    8.4831 C.2         1 GZ2       0.0775
      3 C12        -5.1446   52.1386    8.3003 C.2         1 GZ2      -0.0164
      4 C7         -5.1229   52.7505    7.0958 C.2         1 GZ2       0.0672
      5 C8         -4.6013   52.0440    5.9240 C.3         1 GZ2       0.0190
      6 C9         -4.8689   50.5203    5.9963 C.3         1 GZ2      -0.0220
      7 C10        -4.4489   49.9493    7.3760 C.3         1 GZ2       0.0123
      8 N6         -5.3642   54.0570    6.9339 N.pl3       1 GZ2      -0.2078
      9 C5         -6.3135   54.8074    7.5393 C.2         1 GZ2       0.2841
     10 N4         -6.4707   56.1214    7.3625 N.pl3       1 GZ2      -0.1321
     11 N3         -7.4491   56.4835    8.0597 N.2         1 GZ2      -0.0778
     12 N2         -7.9266   55.5185    8.6556 N.2         1 GZ2      -0.1598
     13 N1         -7.2826   54.4554    8.3926 N.2         1 GZ2      -0.2093
     14 H1         -5.3704   52.6691    9.1109 H           1 GZ2       0.0170
     15 H2         -3.5244   52.2250    5.8552 H           1 GZ2       0.0529
     16 H3         -5.0711   52.4281    5.0143 H           1 GZ2       0.0529
     17 H4         -4.3311   50.0082    5.1925 H           1 GZ2       0.0320
     18 H5         -5.9397   50.3449    5.8495 H           1 GZ2       0.0320
     19 H6         -4.9227   48.9716    7.4988 H           1 GZ2       0.0470
     20 H7         -3.3648   49.8055    7.3898 H           1 GZ2       0.0470
     21 H8         -4.8507   54.4986    6.2348 H           1 GZ2       0.2327
     22 H9         -5.9237   56.7037    6.8074 H           1 GZ2       0.2694
@<TRIPOS>BOND
     1     1     2   2
     2     2     3   1
     3     2     7   1
     4     3     4   2
     5     4     5   1
     6     4     8   1
     7     5     6   1
     8     6     7   1
     9     8     9   1
    10     9    10   1
    11     9    13   2
    12    10    11   1
    13    11    12   2
    14    12    13   1
    15     3    14   1
    16     5    15   1
    17     5    16   1
    18     6    17   1
    19     6    18   1
    20     7    19   1
    21     7    20   1
    22     8    21   1
    23    10    22   1
@<TRIPOS>SUBSTRUCTURE
     1  GZ2      2

