@<TRIPOS>MOLECULE
3g2z_ligand_012
    22    23
SMALL
GAST_HUCK
****
This file was generated by PARSER (from files_GN.cpp)

@<TRIPOS>ATOM
      1 O13        -2.7874   51.9559   11.8780 O.2         1 GZ2      -0.4178
      2 C11        -3.6089   52.4396   12.6470 C.2         1 GZ2       0.0775
      3 C12        -4.1706   53.6420   12.3339 C.2         1 GZ2      -0.0164
      4 C7         -5.2635   54.1367   12.9553 C.2         1 GZ2       0.0672
      5 C8         -5.8841   53.4258   14.0789 C.3         1 GZ2       0.0190
      6 C9         -4.9358   52.4019   14.7548 C.3         1 GZ2      -0.0220
      7 C10        -4.1476   51.5864   13.6975 C.3         1 GZ2       0.0123
      8 N6         -5.7634   55.2798   12.4695 N.pl3       1 GZ2      -0.2078
      9 C5         -6.9859   55.8146   12.6599 C.2         1 GZ2       0.2841
     10 N4         -7.3794   56.9636   12.1195 N.pl3       1 GZ2      -0.1321
     11 N3         -8.5667   57.1747   12.4630 N.2         1 GZ2      -0.0778
     12 N2         -8.9580   56.2531   13.1780 N.2         1 GZ2      -0.1598
     13 N1         -8.0493   55.3920   13.3530 N.2         1 GZ2      -0.2093
     14 H1         -3.7721   54.1579   11.5795 H           1 GZ2       0.0170
     15 H2         -6.7785   52.9108   13.7158 H           1 GZ2       0.0529
     16 H3         -6.1845   54.1429   14.8468 H           1 GZ2       0.0529
     17 H4         -5.5114   51.7358   15.3966 H           1 GZ2       0.0320
     18 H5         -4.2274   52.9488   15.3839 H           1 GZ2       0.0320
     19 H6         -3.3332   51.0557   14.1967 H           1 GZ2       0.0470
     20 H7         -4.8101   50.8436   13.2435 H           1 GZ2       0.0470
     21 H8         -5.1901   55.7709   11.8610 H           1 GZ2       0.2327
     22 H9         -6.8145   57.5379   11.5776 H           1 GZ2       0.2694
@<TRIPOS>BOND
     1     1     2   2
     2     2     3   1
     3     2     7   1
     4     3     4   2
     5     4     5   1
     6     4     8   1
     7     5     6   1
     8     6     7   1
     9     8     9   1
    10     9    10   1
    11     9    13   2
    12    10    11   1
    13    11    12   2
    14    12    13   1
    15     3    14   1
    16     5    15   1
    17     5    16   1
    18     6    17   1
    19     6    18   1
    20     7    19   1
    21     7    20   1
    22     8    21   1
    23    10    22   1
@<TRIPOS>SUBSTRUCTURE
     1  GZ2      2

