@<TRIPOS>MOLECULE
3g2z_ligand_072
    22    23
SMALL
GAST_HUCK
****
This file was generated by PARSER (from files_GN.cpp)

@<TRIPOS>ATOM
      1 O13         2.4297   41.9298   12.5902 O.2         1 GZ2      -0.4178
      2 C11         2.1548   43.0669   12.2322 C.2         1 GZ2       0.0775
      3 C12         1.4025   43.8583   13.0582 C.2         1 GZ2      -0.0164
      4 C7          0.8094   45.0016   12.6467 C.2         1 GZ2       0.0672
      5 C8          0.9846   45.4812   11.2727 C.3         1 GZ2       0.0190
      6 C9          2.2812   44.9665   10.6086 C.3         1 GZ2      -0.0220
      7 C10         2.4701   43.4484   10.8593 C.3         1 GZ2       0.0123
      8 N6          0.0745   45.6638   13.5612 N.pl3       1 GZ2      -0.2078
      9 C5         -0.9234   46.5538   13.3332 C.2         1 GZ2       0.2841
     10 N4         -1.5773   47.2110   14.2845 N.pl3       1 GZ2      -0.1321
     11 N3         -2.4347   47.9432   13.7268 N.2         1 GZ2      -0.0778
     12 N2         -2.3844   47.7910   12.5098 N.2         1 GZ2      -0.1598
     13 N1         -1.4936   46.9558   12.1940 N.2         1 GZ2      -0.2093
     14 H1          1.2706   43.5492   13.9993 H           1 GZ2       0.0170
     15 H2          1.0245   46.5739   11.2638 H           1 GZ2       0.0529
     16 H3          0.1223   45.1627   10.6811 H           1 GZ2       0.0529
     17 H4          3.1352   45.5053   11.0313 H           1 GZ2       0.0320
     18 H5          2.2550   45.1703    9.5353 H           1 GZ2       0.0320
     19 H6          1.8217   42.8873   10.1806 H           1 GZ2       0.0470
     20 H7          3.5074   43.1905   10.6315 H           1 GZ2       0.0470
     21 H8          0.2619   45.4777   14.4894 H           1 GZ2       0.2327
     22 H9         -1.4178   47.1512   15.2385 H           1 GZ2       0.2694
@<TRIPOS>BOND
     1     1     2   2
     2     2     3   1
     3     2     7   1
     4     3     4   2
     5     4     5   1
     6     4     8   1
     7     5     6   1
     8     6     7   1
     9     8     9   1
    10     9    10   1
    11     9    13   2
    12    10    11   1
    13    11    12   2
    14    12    13   1
    15     3    14   1
    16     5    15   1
    17     5    16   1
    18     6    17   1
    19     6    18   1
    20     7    19   1
    21     7    20   1
    22     8    21   1
    23    10    22   1
@<TRIPOS>SUBSTRUCTURE
     1  GZ2      2

