@<TRIPOS>MOLECULE
3g2z_ligand_058
    22    23
SMALL
GAST_HUCK
****
This file was generated by PARSER (from files_GN.cpp)

@<TRIPOS>ATOM
      1 O13       -10.6417   57.5606   13.5138 O.2         1 GZ2      -0.4178
      2 C11       -10.9768   57.5155   12.3380 C.2         1 GZ2       0.0775
      3 C12       -12.0998   56.8248   11.9884 C.2         1 GZ2      -0.0164
      4 C7        -12.4177   56.5521   10.7050 C.2         1 GZ2       0.0672
      5 C8        -11.5633   56.9817    9.5931 C.3         1 GZ2       0.0190
      6 C9        -10.7277   58.2378    9.9468 C.3         1 GZ2      -0.0220
      7 C10       -10.0828   58.1109   11.3525 C.3         1 GZ2       0.0123
      8 N6        -13.5352   55.8909   10.4086 N.pl3       1 GZ2      -0.2078
      9 C5        -13.7317   54.5795   10.6626 C.2         1 GZ2       0.2841
     10 N4        -14.8237   53.8893   10.3386 N.pl3       1 GZ2      -0.1321
     11 N3        -14.6534   52.6958   10.6968 N.2         1 GZ2      -0.0778
     12 N2        -13.5509   52.5786   11.2142 N.2         1 GZ2      -0.1598
     13 N1        -12.9258   53.6770   11.2362 N.2         1 GZ2      -0.2093
     14 H1        -12.7237   56.5312   12.7024 H           1 GZ2       0.0170
     15 H2        -12.1647   57.1968    8.7050 H           1 GZ2       0.0529
     16 H3        -10.8855   56.1557    9.3455 H           1 GZ2       0.0529
     17 H4        -11.3854   59.1120    9.9296 H           1 GZ2       0.0320
     18 H5         -9.9493   58.3942    9.1928 H           1 GZ2       0.0320
     19 H6         -9.1849   57.4928   11.2856 H           1 GZ2       0.0470
     20 H7         -9.7871   59.1078   11.6811 H           1 GZ2       0.0470
     21 H8        -14.1849   56.3371    9.8454 H           1 GZ2       0.2327
     22 H9        -15.6147   54.2481    9.9132 H           1 GZ2       0.2694
@<TRIPOS>BOND
     1     1     2   2
     2     2     3   1
     3     2     7   1
     4     3     4   2
     5     4     5   1
     6     4     8   1
     7     5     6   1
     8     6     7   1
     9     8     9   1
    10     9    10   1
    11     9    13   2
    12    10    11   1
    13    11    12   2
    14    12    13   1
    15     3    14   1
    16     5    15   1
    17     5    16   1
    18     6    17   1
    19     6    18   1
    20     7    19   1
    21     7    20   1
    22     8    21   1
    23    10    22   1
@<TRIPOS>SUBSTRUCTURE
     1  GZ2      2

