@<TRIPOS>MOLECULE
3g2z_ligand_059
    22    23
SMALL
GAST_HUCK
****
This file was generated by PARSER (from files_GN.cpp)

@<TRIPOS>ATOM
      1 O13        -7.6190   52.0217   12.8593 O.2         1 GZ2      -0.4178
      2 C11        -8.4050   51.4330   12.1314 C.2         1 GZ2       0.0775
      3 C12        -9.7435   51.6497   12.2912 C.2         1 GZ2      -0.0164
      4 C7        -10.6529   51.3141   11.3515 C.2         1 GZ2       0.0672
      5 C8        -10.2624   50.6169   10.1185 C.3         1 GZ2       0.0190
      6 C9         -8.9375   49.8292   10.2884 C.3         1 GZ2      -0.0220
      7 C10        -7.8636   50.6982   10.9941 C.3         1 GZ2       0.0123
      8 N6        -11.9336   51.5885   11.5687 N.pl3       1 GZ2      -0.2078
      9 C5        -12.6719   52.4469   10.8298 C.2         1 GZ2       0.2841
     10 N4        -13.9549   52.7407   11.0177 N.pl3       1 GZ2      -0.1321
     11 N3        -14.2940   53.5903   10.1545 N.2         1 GZ2      -0.0778
     12 N2        -13.3282   53.8591    9.4470 N.2         1 GZ2      -0.1598
     13 N1        -12.3037   53.2054    9.7939 N.2         1 GZ2      -0.2093
     14 H1        -10.0542   52.1110   13.1198 H           1 GZ2       0.0170
     15 H2        -10.1543   51.3480    9.3156 H           1 GZ2       0.0529
     16 H3        -11.0486   49.9141    9.8316 H           1 GZ2       0.0529
     17 H4         -8.5743   49.4955    9.3135 H           1 GZ2       0.0320
     18 H5         -9.1282   48.9395   10.8965 H           1 GZ2       0.0320
     19 H6         -7.0516   50.0463   11.3300 H           1 GZ2       0.0470
     20 H7         -7.4497   51.4132   10.2769 H           1 GZ2       0.0470
     21 H8        -12.3331   51.2365   12.3793 H           1 GZ2       0.2327
     22 H9        -14.5260   52.3493   11.6945 H           1 GZ2       0.2694
@<TRIPOS>BOND
     1     1     2   2
     2     2     3   1
     3     2     7   1
     4     3     4   2
     5     4     5   1
     6     4     8   1
     7     5     6   1
     8     6     7   1
     9     8     9   1
    10     9    10   1
    11     9    13   2
    12    10    11   1
    13    11    12   2
    14    12    13   1
    15     3    14   1
    16     5    15   1
    17     5    16   1
    18     6    17   1
    19     6    18   1
    20     7    19   1
    21     7    20   1
    22     8    21   1
    23    10    22   1
@<TRIPOS>SUBSTRUCTURE
     1  GZ2      2

