@<TRIPOS>MOLECULE
3g2z_ligand_002
    22    23
SMALL
GAST_HUCK
****
This file was generated by PARSER (from files_GN.cpp)

@<TRIPOS>ATOM
      1 O13       -12.0854   54.9252   10.7037 O.2         1 GZ2      -0.4178
      2 C11       -11.4948   55.9942   10.6417 C.2         1 GZ2       0.0775
      3 C12       -10.2319   56.0848   11.1500 C.2         1 GZ2      -0.0164
      4 C7         -9.4443   57.1842   11.0231 C.2         1 GZ2       0.0672
      5 C8         -9.8857   58.3011   10.1855 C.3         1 GZ2       0.0190
      6 C9        -11.4302   58.4338   10.1376 C.3         1 GZ2      -0.0220
      7 C10       -12.0944   57.0613    9.8520 C.3         1 GZ2       0.0123
      8 N6         -8.2040   57.2790   11.5226 N.pl3       1 GZ2      -0.2078
      9 C5         -7.6320   56.6054   12.5455 C.2         1 GZ2       0.2841
     10 N4         -6.3904   56.7893   12.9719 N.pl3       1 GZ2      -0.1321
     11 N3         -6.1849   56.0237   13.9441 N.2         1 GZ2      -0.0778
     12 N2         -7.1945   55.3810   14.1696 N.2         1 GZ2      -0.1598
     13 N1         -8.1278   55.6792   13.3750 N.2         1 GZ2      -0.2093
     14 H1         -9.8639   55.2847   11.5982 H           1 GZ2       0.0170
     15 H2         -9.4990   58.1470    9.1721 H           1 GZ2       0.0529
     16 H3         -9.4732   59.2476   10.5563 H           1 GZ2       0.0529
     17 H4        -11.7257   59.1590    9.3743 H           1 GZ2       0.0320
     18 H5        -11.7829   58.8019   11.1067 H           1 GZ2       0.0320
     19 H6        -13.1631   57.1378   10.0786 H           1 GZ2       0.0470
     20 H7        -11.9906   56.8152    8.7902 H           1 GZ2       0.0470
     21 H8         -7.6496   57.9843   11.1363 H           1 GZ2       0.2327
     22 H9         -5.7487   57.4079   12.5930 H           1 GZ2       0.2694
@<TRIPOS>BOND
     1     1     2   2
     2     2     3   1
     3     2     7   1
     4     3     4   2
     5     4     5   1
     6     4     8   1
     7     5     6   1
     8     6     7   1
     9     8     9   1
    10     9    10   1
    11     9    13   2
    12    10    11   1
    13    11    12   2
    14    12    13   1
    15     3    14   1
    16     5    15   1
    17     5    16   1
    18     6    17   1
    19     6    18   1
    20     7    19   1
    21     7    20   1
    22     8    21   1
    23    10    22   1
@<TRIPOS>SUBSTRUCTURE
     1  GZ2      2

