@<TRIPOS>MOLECULE
3g2z_ligand_041
    22    23
SMALL
GAST_HUCK
****
This file was generated by PARSER (from files_GN.cpp)

@<TRIPOS>ATOM
      1 O13        -5.6833   50.6005   10.9803 O.2         1 GZ2      -0.4178
      2 C11        -6.4109   51.2268   11.7390 C.2         1 GZ2       0.0775
      3 C12        -7.7419   50.9255   11.7727 C.2         1 GZ2      -0.0164
      4 C7         -8.6575   51.7137   12.3709 C.2         1 GZ2       0.0672
      5 C8         -8.2728   52.9362   13.0810 C.3         1 GZ2       0.0190
      6 C9         -6.7857   52.9204   13.5341 C.3         1 GZ2      -0.0220
      7 C10        -5.8576   52.4034   12.4026 C.3         1 GZ2       0.0123
      8 N6         -9.9449   51.3727   12.3454 N.pl3       1 GZ2      -0.2078
      9 C5        -10.8409   51.8728   11.4699 C.2         1 GZ2       0.2841
     10 N4        -12.1393   51.5846   11.4578 N.pl3       1 GZ2      -0.1321
     11 N3        -12.6719   52.2406   10.5285 N.2         1 GZ2      -0.0778
     12 N2        -11.8177   52.9074    9.9508 N.2         1 GZ2      -0.1598
     13 N1        -10.6758   52.7376   10.4643 N.2         1 GZ2      -0.2093
     14 H1         -8.0531   50.0911   11.3244 H           1 GZ2       0.0170
     15 H2         -8.9017   53.0658   13.9677 H           1 GZ2       0.0529
     16 H3         -8.4408   53.7915   12.4205 H           1 GZ2       0.0529
     17 H4         -6.6860   52.2554   14.3988 H           1 GZ2       0.0320
     18 H5         -6.4743   53.9227   13.8437 H           1 GZ2       0.0320
     19 H6         -5.7117   53.1924   11.6599 H           1 GZ2       0.0470
     20 H7         -4.8824   52.1625   12.8344 H           1 GZ2       0.0470
     21 H8        -10.2699   50.7534   13.0186 H           1 GZ2       0.2327
     22 H9        -12.5846   50.9911   12.0819 H           1 GZ2       0.2694
@<TRIPOS>BOND
     1     1     2   2
     2     2     3   1
     3     2     7   1
     4     3     4   2
     5     4     5   1
     6     4     8   1
     7     5     6   1
     8     6     7   1
     9     8     9   1
    10     9    10   1
    11     9    13   2
    12    10    11   1
    13    11    12   2
    14    12    13   1
    15     3    14   1
    16     5    15   1
    17     5    16   1
    18     6    17   1
    19     6    18   1
    20     7    19   1
    21     7    20   1
    22     8    21   1
    23    10    22   1
@<TRIPOS>SUBSTRUCTURE
     1  GZ2      2

