@<TRIPOS>MOLECULE
3g2z_ligand_025
    22    23
SMALL
GAST_HUCK
****
This file was generated by PARSER (from files_GN.cpp)

@<TRIPOS>ATOM
      1 O13        -2.3135   51.9472    7.9462 O.2         1 GZ2      -0.4178
      2 C11        -1.4189   51.9054    8.7810 C.2         1 GZ2       0.0775
      3 C12        -0.8538   50.7045    9.0765 C.2         1 GZ2      -0.0164
      4 C7         -0.0187   50.5158   10.1233 C.2         1 GZ2       0.0672
      5 C8          0.2914   51.6174   11.0408 C.3         1 GZ2       0.0190
      6 C9          0.1911   53.0077   10.3602 C.3         1 GZ2      -0.0220
      7 C10        -1.1072   53.1274    9.5125 C.3         1 GZ2       0.0123
      8 N6          0.5572   49.3409   10.4012 N.pl3       1 GZ2      -0.2078
      9 C5         -0.0773   48.1616   10.5895 C.2         1 GZ2       0.2841
     10 N4          0.5136   47.0287   10.9550 N.pl3       1 GZ2      -0.1321
     11 N3         -0.3774   46.1536   11.0877 N.2         1 GZ2      -0.0778
     12 N2         -1.4767   46.6387   10.8431 N.2         1 GZ2      -0.1598
     13 N1         -1.3791   47.8612   10.5357 N.2         1 GZ2      -0.2093
     14 H1         -1.0202   49.9363    8.4642 H           1 GZ2       0.0170
     15 H2          1.2973   51.5000   11.4541 H           1 GZ2       0.0529
     16 H3         -0.4186   51.5757   11.8731 H           1 GZ2       0.0529
     17 H4          1.0576   53.1399    9.7051 H           1 GZ2       0.0320
     18 H5          0.2173   53.8001   11.1161 H           1 GZ2       0.0320
     19 H6         -1.9478   53.3653   10.1686 H           1 GZ2       0.0470
     20 H7         -0.9852   53.9579    8.8094 H           1 GZ2       0.0470
     21 H8          1.4936   49.3607   10.6366 H           1 GZ2       0.2327
     22 H9          1.4635   46.9044   11.0970 H           1 GZ2       0.2694
@<TRIPOS>BOND
     1     1     2   2
     2     2     3   1
     3     2     7   1
     4     3     4   2
     5     4     5   1
     6     4     8   1
     7     5     6   1
     8     6     7   1
     9     8     9   1
    10     9    10   1
    11     9    13   2
    12    10    11   1
    13    11    12   2
    14    12    13   1
    15     3    14   1
    16     5    15   1
    17     5    16   1
    18     6    17   1
    19     6    18   1
    20     7    19   1
    21     7    20   1
    22     8    21   1
    23    10    22   1
@<TRIPOS>SUBSTRUCTURE
     1  GZ2      2

