@<TRIPOS>MOLECULE
3g2z_ligand_034
    22    23
SMALL
GAST_HUCK
****
This file was generated by PARSER (from files_GN.cpp)

@<TRIPOS>ATOM
      1 O13       -11.0068   56.4634    7.1026 O.2         1 GZ2      -0.4178
      2 C11        -9.9439   56.3093    7.6944 C.2         1 GZ2       0.0775
      3 C12        -9.9646   55.9866    9.0193 C.2         1 GZ2      -0.0164
      4 C7         -8.8749   56.0243    9.8171 C.2         1 GZ2       0.0672
      5 C8         -7.5605   56.3850    9.2712 C.3         1 GZ2       0.0190
      6 C9         -7.4514   56.1835    7.7351 C.3         1 GZ2      -0.0220
      7 C10        -8.7208   56.6996    7.0076 C.3         1 GZ2       0.0123
      8 N6         -9.0575   55.7265   11.1136 N.pl3       1 GZ2      -0.2078
      9 C5         -8.2337   55.9420   12.1648 C.2         1 GZ2       0.2841
     10 N4         -7.0643   56.5749   12.2824 N.pl3       1 GZ2      -0.1321
     11 N3         -6.6885   56.4845   13.4784 N.2         1 GZ2      -0.0778
     12 N2         -7.5255   55.8588   14.1213 N.2         1 GZ2      -0.1598
     13 N1         -8.4969   55.5092   13.3967 N.2         1 GZ2      -0.2093
     14 H1        -10.8420   55.7378    9.4199 H           1 GZ2       0.0170
     15 H2         -6.7823   55.7776    9.7382 H           1 GZ2       0.0529
     16 H3         -7.3724   57.4326    9.5169 H           1 GZ2       0.0529
     17 H4         -7.3344   55.1141    7.5283 H           1 GZ2       0.0320
     18 H5         -6.5661   56.6933    7.3524 H           1 GZ2       0.0320
     19 H6         -8.6886   57.7911    6.9462 H           1 GZ2       0.0470
     20 H7         -8.7271   56.2993    5.9893 H           1 GZ2       0.0470
     21 H8         -9.8996   55.2957   11.3300 H           1 GZ2       0.2327
     22 H9         -6.5743   57.0336   11.5862 H           1 GZ2       0.2694
@<TRIPOS>BOND
     1     1     2   2
     2     2     3   1
     3     2     7   1
     4     3     4   2
     5     4     5   1
     6     4     8   1
     7     5     6   1
     8     6     7   1
     9     8     9   1
    10     9    10   1
    11     9    13   2
    12    10    11   1
    13    11    12   2
    14    12    13   1
    15     3    14   1
    16     5    15   1
    17     5    16   1
    18     6    17   1
    19     6    18   1
    20     7    19   1
    21     7    20   1
    22     8    21   1
    23    10    22   1
@<TRIPOS>SUBSTRUCTURE
     1  GZ2      2

