@<TRIPOS>MOLECULE
3g2z_ligand_024
    22    23
SMALL
GAST_HUCK
****
This file was generated by PARSER (from files_GN.cpp)

@<TRIPOS>ATOM
      1 O13        -6.9679   54.9079   13.8043 O.2         1 GZ2      -0.4178
      2 C11        -7.2978   54.3498   12.7628 C.2         1 GZ2       0.0775
      3 C12        -8.3590   53.4960   12.7883 C.2         1 GZ2      -0.0164
      4 C7         -9.0003   53.0652   11.6753 C.2         1 GZ2       0.0672
      5 C8         -8.5254   53.4684   10.3455 C.3         1 GZ2       0.0190
      6 C9         -7.0283   53.8758   10.3199 C.3         1 GZ2      -0.0220
      7 C10        -6.6775   54.7880   11.5218 C.3         1 GZ2       0.0123
      8 N6        -10.0815   52.2976   11.8603 N.pl3       1 GZ2      -0.2078
      9 C5        -11.0694   52.0017   10.9840 C.2         1 GZ2       0.2841
     10 N4        -12.1313   51.2563   11.2820 N.pl3       1 GZ2      -0.1321
     11 N3        -12.8637   51.1899   10.2674 N.2         1 GZ2      -0.0778
     12 N2        -12.3659   51.8390    9.3513 N.2         1 GZ2      -0.1598
     13 N1        -11.2762   52.3697    9.7133 N.2         1 GZ2      -0.2093
     14 H1         -8.7219   53.2339   13.6778 H           1 GZ2       0.0170
     15 H2         -9.1317   54.3085    9.9985 H           1 GZ2       0.0529
     16 H3         -8.6535   52.6440    9.6400 H           1 GZ2       0.0529
     17 H4         -6.7929   54.3763    9.3762 H           1 GZ2       0.0320
     18 H5         -6.4174   52.9699   10.3776 H           1 GZ2       0.0320
     19 H6         -5.5882   54.8075   11.6405 H           1 GZ2       0.0470
     20 H7         -7.0081   55.8075   11.3059 H           1 GZ2       0.0470
     21 H8        -10.2207   51.9657   12.7672 H           1 GZ2       0.2327
     22 H9        -12.3116   50.8396   12.1416 H           1 GZ2       0.2694
@<TRIPOS>BOND
     1     1     2   2
     2     2     3   1
     3     2     7   1
     4     3     4   2
     5     4     5   1
     6     4     8   1
     7     5     6   1
     8     6     7   1
     9     8     9   1
    10     9    10   1
    11     9    13   2
    12    10    11   1
    13    11    12   2
    14    12    13   1
    15     3    14   1
    16     5    15   1
    17     5    16   1
    18     6    17   1
    19     6    18   1
    20     7    19   1
    21     7    20   1
    22     8    21   1
    23    10    22   1
@<TRIPOS>SUBSTRUCTURE
     1  GZ2      2

