@<TRIPOS>MOLECULE
3g2z_ligand_008
    22    23
SMALL
GAST_HUCK
****
This file was generated by PARSER (from files_GN.cpp)

@<TRIPOS>ATOM
      1 O13        -6.1696   55.6232   10.6768 O.2         1 GZ2      -0.4178
      2 C11        -7.2476   56.1167   10.3787 C.2         1 GZ2       0.0775
      3 C12        -7.5507   56.2899    9.0620 C.2         1 GZ2      -0.0164
      4 C7         -8.5861   57.0427    8.6253 C.2         1 GZ2       0.0672
      5 C8         -9.4026   57.7902    9.5932 C.3         1 GZ2       0.0190
      6 C9         -9.4816   57.0859   10.9735 C.3         1 GZ2      -0.0220
      7 C10        -8.0707   56.6496   11.4550 C.3         1 GZ2       0.0123
      8 N6         -8.8593   57.2787    7.3316 N.pl3       1 GZ2      -0.2078
      9 C5         -8.5723   56.5404    6.2331 C.2         1 GZ2       0.2841
     10 N4         -8.9079   56.8799    4.9906 N.pl3       1 GZ2      -0.1321
     11 N3         -8.5149   55.9711    4.2161 N.2         1 GZ2      -0.0778
     12 N2         -7.9592   55.0873    4.8651 N.2         1 GZ2      -0.1598
     13 N1         -7.9570   55.3566    6.0999 N.2         1 GZ2      -0.2093
     14 H1         -6.9386   55.8720    8.3957 H           1 GZ2       0.0170
     15 H2        -10.4215   57.9160    9.2136 H           1 GZ2       0.0529
     16 H3         -8.9622   58.7812    9.7169 H           1 GZ2       0.0529
     17 H4        -10.1166   56.1996   10.8824 H           1 GZ2       0.0320
     18 H5         -9.9362   57.7560   11.7081 H           1 GZ2       0.0320
     19 H6         -7.5581   57.5118   11.8931 H           1 GZ2       0.0470
     20 H7         -8.1913   55.8933   12.2372 H           1 GZ2       0.0470
     21 H8         -9.3971   58.0672    7.1593 H           1 GZ2       0.2327
     22 H9         -9.3828   57.6833    4.7258 H           1 GZ2       0.2694
@<TRIPOS>BOND
     1     1     2   2
     2     2     3   1
     3     2     7   1
     4     3     4   2
     5     4     5   1
     6     4     8   1
     7     5     6   1
     8     6     7   1
     9     8     9   1
    10     9    10   1
    11     9    13   2
    12    10    11   1
    13    11    12   2
    14    12    13   1
    15     3    14   1
    16     5    15   1
    17     5    16   1
    18     6    17   1
    19     6    18   1
    20     7    19   1
    21     7    20   1
    22     8    21   1
    23    10    22   1
@<TRIPOS>SUBSTRUCTURE
     1  GZ2      2

