@<TRIPOS>MOLECULE
3g2z_ligand_032
    22    23
SMALL
GAST_HUCK
****
This file was generated by PARSER (from files_GN.cpp)

@<TRIPOS>ATOM
      1 O13         0.8766   46.8084    9.2077 O.2         1 GZ2      -0.4178
      2 C11         0.2293   47.2993   10.1248 C.2         1 GZ2       0.0775
      3 C12         0.3216   46.7357   11.3642 C.2         1 GZ2      -0.0164
      4 C7         -0.5469   46.9954   12.3677 C.2         1 GZ2       0.0672
      5 C8         -1.6218   47.9826   12.1955 C.3         1 GZ2       0.0190
      6 C9         -1.3726   48.9776   11.0279 C.3         1 GZ2      -0.0220
      7 C10        -0.8319   48.2351    9.7800 C.3         1 GZ2       0.0123
      8 N6         -0.3942   46.2813   13.4930 N.pl3       1 GZ2      -0.2078
      9 C5         -1.2720   46.0895   14.5014 C.2         1 GZ2       0.2841
     10 N4         -1.0143   45.3759   15.5935 N.pl3       1 GZ2      -0.1321
     11 N3         -2.0432   45.3739   16.3137 N.2         1 GZ2      -0.0778
     12 N2         -2.9303   46.0219   15.7696 N.2         1 GZ2      -0.1598
     13 N1         -2.5346   46.4910   14.6679 N.2         1 GZ2      -0.2093
     14 H1          1.0449   46.0661   11.5166 H           1 GZ2       0.0170
     15 H2         -1.7369   48.5725   13.1091 H           1 GZ2       0.0529
     16 H3         -2.5565   47.4454   12.0137 H           1 GZ2       0.0529
     17 H4         -0.6345   49.7219   11.3449 H           1 GZ2       0.0320
     18 H5         -2.2971   49.5037   10.7797 H           1 GZ2       0.0320
     19 H6         -1.6476   47.6826    9.3052 H           1 GZ2       0.0470
     20 H7         -0.4605   48.9751    9.0669 H           1 GZ2       0.0470
     21 H8          0.4460   45.7993   13.5809 H           1 GZ2       0.2327
     22 H9         -0.1646   44.9636   15.8106 H           1 GZ2       0.2694
@<TRIPOS>BOND
     1     1     2   2
     2     2     3   1
     3     2     7   1
     4     3     4   2
     5     4     5   1
     6     4     8   1
     7     5     6   1
     8     6     7   1
     9     8     9   1
    10     9    10   1
    11     9    13   2
    12    10    11   1
    13    11    12   2
    14    12    13   1
    15     3    14   1
    16     5    15   1
    17     5    16   1
    18     6    17   1
    19     6    18   1
    20     7    19   1
    21     7    20   1
    22     8    21   1
    23    10    22   1
@<TRIPOS>SUBSTRUCTURE
     1  GZ2      2

