@<TRIPOS>MOLECULE
3g2z_ligand_005
    22    23
SMALL
GAST_HUCK
****
This file was generated by PARSER (from files_GN.cpp)

@<TRIPOS>ATOM
      1 O13       -11.8431   60.7325   11.5036 O.2         1 GZ2      -0.4178
      2 C11       -11.5398   59.5485   11.4216 C.2         1 GZ2       0.0775
      3 C12       -10.6767   59.1565   10.4401 C.2         1 GZ2      -0.0164
      4 C7        -10.4498   57.8621   10.1386 C.2         1 GZ2       0.0672
      5 C8        -11.2514   56.8000   10.7392 C.3         1 GZ2       0.0190
      6 C9        -11.6926   57.1579   12.1844 C.3         1 GZ2      -0.0220
      7 C10       -12.2749   58.5974   12.2526 C.3         1 GZ2       0.0123
      8 N6         -9.7193   57.5755    9.0670 N.pl3       1 GZ2      -0.2078
      9 C5         -8.5247   56.9545    9.1206 C.2         1 GZ2       0.2841
     10 N4         -7.7378   56.6711    8.0830 N.pl3       1 GZ2      -0.1321
     11 N3         -6.6797   56.1585    8.5329 N.2         1 GZ2      -0.0778
     12 N2         -6.7372   56.0819    9.7543 N.2         1 GZ2      -0.1598
     13 N1         -7.8337   56.5457   10.1933 N.2         1 GZ2      -0.2093
     14 H1        -10.1876   59.8601    9.9335 H           1 GZ2       0.0170
     15 H2        -10.6920   55.8597   10.7552 H           1 GZ2       0.0529
     16 H3        -12.1412   56.6522   10.1162 H           1 GZ2       0.0529
     17 H4        -10.8234   57.0913   12.8438 H           1 GZ2       0.0320
     18 H5        -12.4366   56.4357   12.5354 H           1 GZ2       0.0320
     19 H6        -13.3174   58.5800   11.9256 H           1 GZ2       0.0470
     20 H7        -12.2552   58.9273   13.2924 H           1 GZ2       0.0470
     21 H8        -10.0069   57.9402    8.2152 H           1 GZ2       0.2327
     22 H9         -7.9298   56.8535    7.1507 H           1 GZ2       0.2694
@<TRIPOS>BOND
     1     1     2   2
     2     2     3   1
     3     2     7   1
     4     3     4   2
     5     4     5   1
     6     4     8   1
     7     5     6   1
     8     6     7   1
     9     8     9   1
    10     9    10   1
    11     9    13   2
    12    10    11   1
    13    11    12   2
    14    12    13   1
    15     3    14   1
    16     5    15   1
    17     5    16   1
    18     6    17   1
    19     6    18   1
    20     7    19   1
    21     7    20   1
    22     8    21   1
    23    10    22   1
@<TRIPOS>SUBSTRUCTURE
     1  GZ2      2

