@<TRIPOS>MOLECULE
3g2z_ligand_035
    22    23
SMALL
GAST_HUCK
****
This file was generated by PARSER (from files_GN.cpp)

@<TRIPOS>ATOM
      1 O13        -3.0052   47.7104    7.9421 O.2         1 GZ2      -0.4178
      2 C11        -2.4754   47.8594    9.0362 C.2         1 GZ2       0.0775
      3 C12        -1.3803   48.6689    9.1378 C.2         1 GZ2      -0.0164
      4 C7         -0.6284   48.7559   10.2609 C.2         1 GZ2       0.0672
      5 C8         -0.8760   47.8548   11.3839 C.3         1 GZ2       0.0190
      6 C9         -2.3856   47.5207   11.5242 C.3         1 GZ2      -0.0220
      7 C10        -2.9851   47.0786   10.1599 C.3         1 GZ2       0.0123
      8 N6          0.4779   49.5041   10.3229 N.pl3       1 GZ2      -0.2078
      9 C5          0.5754   50.8218   10.0510 C.2         1 GZ2       0.2841
     10 N4          1.7224   51.4908   10.0997 N.pl3       1 GZ2      -0.1321
     11 N3          1.4916   52.6895    9.8077 N.2         1 GZ2      -0.0778
     12 N2          0.2933   52.8293    9.5765 N.2         1 GZ2      -0.1598
     13 N1         -0.3357   51.7374    9.7025 N.2         1 GZ2      -0.2093
     14 H1         -1.1025   49.1819    8.3323 H           1 GZ2       0.0170
     15 H2         -0.5356   48.3095   12.3186 H           1 GZ2       0.0529
     16 H3         -0.3091   46.9332   11.2282 H           1 GZ2       0.0529
     17 H4         -2.9156   48.4152   11.8694 H           1 GZ2       0.0320
     18 H5         -2.5318   46.7362   12.2719 H           1 GZ2       0.0320
     19 H6         -2.7510   46.0245    9.9868 H           1 GZ2       0.0470
     20 H7         -4.0728   47.1803   10.2100 H           1 GZ2       0.0470
     21 H8          1.2844   49.0793   10.6601 H           1 GZ2       0.2327
     22 H9          2.5805   51.0944   10.3139 H           1 GZ2       0.2694
@<TRIPOS>BOND
     1     1     2   2
     2     2     3   1
     3     2     7   1
     4     3     4   2
     5     4     5   1
     6     4     8   1
     7     5     6   1
     8     6     7   1
     9     8     9   1
    10     9    10   1
    11     9    13   2
    12    10    11   1
    13    11    12   2
    14    12    13   1
    15     3    14   1
    16     5    15   1
    17     5    16   1
    18     6    17   1
    19     6    18   1
    20     7    19   1
    21     7    20   1
    22     8    21   1
    23    10    22   1
@<TRIPOS>SUBSTRUCTURE
     1  GZ2      2

