@<TRIPOS>MOLECULE
3g2z_ligand_050
    22    23
SMALL
GAST_HUCK
****
This file was generated by PARSER (from files_GN.cpp)

@<TRIPOS>ATOM
      1 O13        -7.1560   54.9913    5.8123 O.2         1 GZ2      -0.4178
      2 C11        -7.7234   54.7075    6.8632 C.2         1 GZ2       0.0775
      3 C12        -7.4352   55.4457    7.9753 C.2         1 GZ2      -0.0164
      4 C7         -7.8228   55.1002    9.2246 C.2         1 GZ2       0.0672
      5 C8         -8.6435   53.8985    9.4641 C.3         1 GZ2       0.0190
      6 C9         -9.3259   53.3293    8.1835 C.3         1 GZ2      -0.0220
      7 C10        -8.4035   53.4220    6.9370 C.3         1 GZ2       0.0123
      8 N6         -7.3292   55.8519   10.2252 N.pl3       1 GZ2      -0.2078
      9 C5         -7.5611   55.8081   11.5523 C.2         1 GZ2       0.2841
     10 N4         -6.9895   56.6320   12.4258 N.pl3       1 GZ2      -0.1321
     11 N3         -7.4131   56.3538   13.5776 N.2         1 GZ2      -0.0778
     12 N2         -8.2058   55.4193   13.4874 N.2         1 GZ2      -0.1598
     13 N1         -8.3471   55.0209   12.2905 N.2         1 GZ2      -0.2093
     14 H1         -6.8879   56.2709    7.8512 H           1 GZ2       0.0170
     15 H2         -9.4448   54.1379   10.1749 H           1 GZ2       0.0529
     16 H3         -7.9926   53.1222    9.8994 H           1 GZ2       0.0529
     17 H4        -10.2434   53.9005    7.9841 H           1 GZ2       0.0320
     18 H5         -9.6084   52.2871    8.3461 H           1 GZ2       0.0320
     19 H6         -7.6478   52.6279    6.9718 H           1 GZ2       0.0470
     20 H7         -9.0194   53.2797    6.0367 H           1 GZ2       0.0470
     21 H8         -6.7157   56.5584    9.9433 H           1 GZ2       0.2327
     22 H9         -6.3410   57.3121   12.2119 H           1 GZ2       0.2694
@<TRIPOS>BOND
     1     1     2   2
     2     2     3   1
     3     2     7   1
     4     3     4   2
     5     4     5   1
     6     4     8   1
     7     5     6   1
     8     6     7   1
     9     8     9   1
    10     9    10   1
    11     9    13   2
    12    10    11   1
    13    11    12   2
    14    12    13   1
    15     3    14   1
    16     5    15   1
    17     5    16   1
    18     6    17   1
    19     6    18   1
    20     7    19   1
    21     7    20   1
    22     8    21   1
    23    10    22   1
@<TRIPOS>SUBSTRUCTURE
     1  GZ2      2

