@<TRIPOS>MOLECULE
3g2z_ligand_019
    22    23
SMALL
GAST_HUCK
****
This file was generated by PARSER (from files_GN.cpp)

@<TRIPOS>ATOM
      1 O13        -5.9108   49.0603   10.9596 O.2         1 GZ2      -0.4178
      2 C11        -5.0181   49.6080   11.5998 C.2         1 GZ2       0.0775
      3 C12        -5.3519   50.5472   12.5299 C.2         1 GZ2      -0.0164
      4 C7         -4.4737   51.0744   13.4140 C.2         1 GZ2       0.0672
      5 C8         -3.1126   50.5449   13.5119 C.3         1 GZ2       0.0190
      6 C9         -2.5960   49.9721   12.1623 C.3         1 GZ2      -0.0220
      7 C10        -3.6649   49.0926   11.4539 C.3         1 GZ2       0.0123
      8 N6         -4.8586   51.9751   14.3327 N.pl3       1 GZ2      -0.2078
      9 C5         -5.3775   53.1988   14.0534 C.2         1 GZ2       0.2841
     10 N4         -5.7796   54.1226   14.9302 N.pl3       1 GZ2      -0.1321
     11 N3         -6.1672   55.1288   14.2867 N.2         1 GZ2      -0.0778
     12 N2         -6.0404   54.9283   13.0835 N.2         1 GZ2      -0.1598
     13 N1         -5.5598   53.7789   12.8611 N.2         1 GZ2      -0.2093
     14 H1         -6.3026   50.8351   12.5678 H           1 GZ2       0.0170
     15 H2         -3.0779   49.7656   14.2734 H           1 GZ2       0.0529
     16 H3         -2.4247   51.3380   13.8227 H           1 GZ2       0.0529
     17 H4         -1.6870   49.3848   12.3230 H           1 GZ2       0.0320
     18 H5         -2.3375   50.8065   11.5035 H           1 GZ2       0.0320
     19 H6         -3.4193   49.0331   10.3884 H           1 GZ2       0.0470
     20 H7         -3.6333   48.0783   11.8569 H           1 GZ2       0.0470
     21 H8         -4.6675   51.7756   15.2653 H           1 GZ2       0.2327
     22 H9         -5.8288   54.0308   15.8956 H           1 GZ2       0.2694
@<TRIPOS>BOND
     1     1     2   2
     2     2     3   1
     3     2     7   1
     4     3     4   2
     5     4     5   1
     6     4     8   1
     7     5     6   1
     8     6     7   1
     9     8     9   1
    10     9    10   1
    11     9    13   2
    12    10    11   1
    13    11    12   2
    14    12    13   1
    15     3    14   1
    16     5    15   1
    17     5    16   1
    18     6    17   1
    19     6    18   1
    20     7    19   1
    21     7    20   1
    22     8    21   1
    23    10    22   1
@<TRIPOS>SUBSTRUCTURE
     1  GZ2      2

