@<TRIPOS>MOLECULE
3g2z_ligand_017
    22    23
SMALL
GAST_HUCK
****
This file was generated by PARSER (from files_GN.cpp)

@<TRIPOS>ATOM
      1 O13       -12.6519   58.8322   13.2211 O.2         1 GZ2      -0.4178
      2 C11       -11.9092   58.8316   12.2468 C.2         1 GZ2       0.0775
      3 C12       -11.3856   57.6479   11.8296 C.2         1 GZ2      -0.0164
      4 C7        -10.4237   57.5572   10.8839 C.2         1 GZ2       0.0672
      5 C8         -9.9187   58.7489   10.1884 C.3         1 GZ2       0.0190
      6 C9        -10.9222   59.9352   10.2472 C.3         1 GZ2      -0.0220
      7 C10       -11.4857   60.1108   11.6833 C.3         1 GZ2       0.0123
      8 N6        -10.0347   56.3302   10.5301 N.pl3       1 GZ2      -0.2078
      9 C5         -8.7747   55.9165   10.2683 C.2         1 GZ2       0.2841
     10 N4         -7.5987   56.5500   10.3490 N.pl3       1 GZ2      -0.1321
     11 N3         -6.6983   55.7156   10.0787 N.2         1 GZ2      -0.0778
     12 N2         -7.2027   54.6199    9.8453 N.2         1 GZ2      -0.1598
     13 N1         -8.4606   54.6618    9.9484 N.2         1 GZ2      -0.2093
     14 H1        -11.7303   56.8090   12.2435 H           1 GZ2       0.0170
     15 H2         -9.7224   58.5047    9.1379 H           1 GZ2       0.0529
     16 H3         -8.9724   59.0546   10.6385 H           1 GZ2       0.0529
     17 H4        -11.7578   59.7337    9.5694 H           1 GZ2       0.0320
     18 H5        -10.4444   60.8656    9.9192 H           1 GZ2       0.0320
     19 H6        -10.7160   60.5412   12.3301 H           1 GZ2       0.0470
     20 H7        -12.3275   60.8082   11.6480 H           1 GZ2       0.0470
     21 H8        -10.7016   55.6304   10.5817 H           1 GZ2       0.2327
     22 H9         -7.4603   57.4619   10.6379 H           1 GZ2       0.2694
@<TRIPOS>BOND
     1     1     2   2
     2     2     3   1
     3     2     7   1
     4     3     4   2
     5     4     5   1
     6     4     8   1
     7     5     6   1
     8     6     7   1
     9     8     9   1
    10     9    10   1
    11     9    13   2
    12    10    11   1
    13    11    12   2
    14    12    13   1
    15     3    14   1
    16     5    15   1
    17     5    16   1
    18     6    17   1
    19     6    18   1
    20     7    19   1
    21     7    20   1
    22     8    21   1
    23    10    22   1
@<TRIPOS>SUBSTRUCTURE
     1  GZ2      2

