@<TRIPOS>MOLECULE
3gbb_ligand_021
    34    35
SMALL
GAST_HUCK
****
This file was generated by PARSER (from files_GN.cpp)

@<TRIPOS>ATOM
      1 O           0.6481   48.5852    2.6490 O.co2       1 MS8      -0.5643
      2 C           1.7527   47.8225    2.4922 C.2         1 MS8       0.0844
      3 OXT         2.5435   48.0728    1.4236 O.co2       1 MS8      -0.5643
      4 CA          2.1916   46.8450    3.5117 C.3         1 MS8       0.0305
      5 N           1.3479   46.9097    4.7174 N.4         1 MS8       0.2327
      6 CB          2.3651   45.3893    2.9477 C.3         1 MS8       0.0363
      7 CAS         1.1089   44.4573    2.8075 C.3         1 MS8       0.1229
      8 CAJ         0.6906   43.7712    4.1383 C.3         1 MS8       0.0101
      9 CAN        -0.0172   45.1755    2.1549 C.2         1 MS8       0.0769
     10 OAC        -0.0211   45.3751    0.8106 O.co2       1 MS8      -0.5451
     11 OAE        -0.9626   45.7968    2.8964 O.co2       1 MS8      -0.5451
     12 OAL         1.4220   43.3387    1.9641 O.3         1 MS8      -0.3631
     13 CAR         1.9711   42.2691    2.7463 C.3         1 MS8       0.0848
     14 CAQ         1.5828   42.5219    4.2277 C.3         1 MS8       0.0868
     15 CAH         1.4484   40.9030    2.2340 C.3         1 MS8      -0.0222
     16 CAP         1.8148   39.7667    3.2212 C.3         1 MS8      -0.0270
     17 CAG         1.4963   40.1434    4.7013 C.3         1 MS8       0.0482
     18 OAK         0.8792   41.4360    4.8688 O.3         1 MS8      -0.3740
     19 H1          3.1800   47.1769    3.8451 H           1 MS8       0.1024
     20 H2          1.7727   46.3415    5.4540 H           1 MS8       0.2010
     21 H3          0.4129   46.5588    4.4962 H           1 MS8       0.2010
     22 H4          1.2806   47.8783    5.0392 H           1 MS8       0.2010
     23 H5          3.0906   44.8870    3.5946 H           1 MS8       0.0359
     24 H6          2.8440   45.4560    1.9678 H           1 MS8       0.0359
     25 H7         -0.3559   43.4573    4.0905 H           1 MS8       0.0311
     26 H8          0.8236   44.4002    5.0197 H           1 MS8       0.0311
     27 H9          3.0648   42.2940    2.6431 H           1 MS8       0.0620
     28 H10         2.4803   42.7519    4.8141 H           1 MS8       0.0622
     29 H11         1.8725   40.6874    1.2477 H           1 MS8       0.0292
     30 H12         0.3604   40.9456    2.1288 H           1 MS8       0.0292
     31 H13         2.8840   39.5533    3.1285 H           1 MS8       0.0288
     32 H14         1.2741   38.8598    2.9402 H           1 MS8       0.0288
     33 H15         2.4139   40.1225    5.2934 H           1 MS8       0.0560
     34 H16         0.8126   39.4049    5.1247 H           1 MS8       0.0560
@<TRIPOS>BOND
     1     1     2  ar
     2     2     3  ar
     3     2     4   1
     4     4     5   1
     5     4     6   1
     6     6     7   1
     7     7     8   1
     8     7     9   1
     9     7    12   1
    10     8    14   1
    11     9    10  ar
    12     9    11  ar
    13    12    13   1
    14    13    14   1
    15    13    15   1
    16    14    18   1
    17    15    16   1
    18    16    17   1
    19    17    18   1
    20     4    19   1
    21     5    20   1
    22     5    21   1
    23     5    22   1
    24     6    23   1
    25     6    24   1
    26     8    25   1
    27     8    26   1
    28    13    27   1
    29    14    28   1
    30    15    29   1
    31    15    30   1
    32    16    31   1
    33    16    32   1
    34    17    33   1
    35    17    34   1
@<TRIPOS>SUBSTRUCTURE
     1  MS8      2

