@<TRIPOS>MOLECULE
3gbb_ligand_070
    34    35
SMALL
GAST_HUCK
****
This file was generated by PARSER (from files_GN.cpp)

@<TRIPOS>ATOM
      1 O          -0.8906   40.1470    4.6582 O.co2       1 MS8      -0.5643
      2 C           0.2854   39.9887    5.3045 C.2         1 MS8       0.0844
      3 OXT         0.6147   38.7432    5.7144 O.co2       1 MS8      -0.5643
      4 CA          1.1389   41.1633    5.5718 C.3         1 MS8       0.0305
      5 N           1.8448   41.0079    6.8539 N.4         1 MS8       0.2327
      6 CB          2.1313   41.4211    4.3964 C.3         1 MS8       0.0363
      7 CAS         3.0878   42.6618    4.5464 C.3         1 MS8       0.1229
      8 CAJ         2.3616   43.9309    5.0655 C.3         1 MS8       0.0101
      9 CAN         4.2432   42.3262    5.4221 C.2         1 MS8       0.0769
     10 OAC         4.9140   43.2776    6.1112 O.co2       1 MS8      -0.5451
     11 OAE         4.6545   41.0471    5.5771 O.co2       1 MS8      -0.5451
     12 OAL         3.5812   43.0844    3.2585 O.3         1 MS8      -0.3631
     13 CAR         2.6364   43.9988    2.6708 C.3         1 MS8       0.0848
     14 CAQ         1.7449   44.5596    3.8108 C.3         1 MS8       0.0868
     15 CAH         3.3806   45.1288    1.9162 C.3         1 MS8      -0.0222
     16 CAP         2.4113   46.2707    1.5118 C.3         1 MS8      -0.0270
     17 CAG         1.4410   46.6654    2.6662 C.3         1 MS8       0.0482
     18 OAK         1.7420   46.0018    3.9101 O.3         1 MS8      -0.3740
     19 H1          0.4680   42.0173    5.6748 H           1 MS8       0.1024
     20 H2          2.3327   41.8750    7.0881 H           1 MS8       0.2010
     21 H3          2.5247   40.2491    6.7793 H           1 MS8       0.2010
     22 H4          1.1738   40.7940    7.5945 H           1 MS8       0.2010
     23 H5          1.5526   41.5453    3.4786 H           1 MS8       0.0359
     24 H6          2.7302   40.5154    4.2607 H           1 MS8       0.0359
     25 H7          3.0715   44.6377    5.5047 H           1 MS8       0.0311
     26 H8          1.6095   43.7120    5.8211 H           1 MS8       0.0311
     27 H9          2.0157   43.4490    1.9556 H           1 MS8       0.0620
     28 H10         0.7152   44.2031    3.6946 H           1 MS8       0.0622
     29 H11         3.8681   44.7237    1.0276 H           1 MS8       0.0292
     30 H12         4.1583   45.5377    2.5661 H           1 MS8       0.0292
     31 H13         1.8262   45.9485    0.6456 H           1 MS8       0.0288
     32 H14         2.9994   47.1400    1.2048 H           1 MS8       0.0288
     33 H15         0.4081   46.4437    2.3817 H           1 MS8       0.0560
     34 H16         1.5040   47.7410    2.8439 H           1 MS8       0.0560
@<TRIPOS>BOND
     1     1     2  ar
     2     2     3  ar
     3     2     4   1
     4     4     5   1
     5     4     6   1
     6     6     7   1
     7     7     8   1
     8     7     9   1
     9     7    12   1
    10     8    14   1
    11     9    10  ar
    12     9    11  ar
    13    12    13   1
    14    13    14   1
    15    13    15   1
    16    14    18   1
    17    15    16   1
    18    16    17   1
    19    17    18   1
    20     4    19   1
    21     5    20   1
    22     5    21   1
    23     5    22   1
    24     6    23   1
    25     6    24   1
    26     8    25   1
    27     8    26   1
    28    13    27   1
    29    14    28   1
    30    15    29   1
    31    15    30   1
    32    16    31   1
    33    16    32   1
    34    17    33   1
    35    17    34   1
@<TRIPOS>SUBSTRUCTURE
     1  MS8      2

