@<TRIPOS>MOLECULE
3gbb_ligand_046
    34    35
SMALL
GAST_HUCK
****
This file was generated by PARSER (from files_GN.cpp)

@<TRIPOS>ATOM
      1 O          -0.2892   46.4574    2.0283 O.co2       1 MS8      -0.5643
      2 C           0.0186   45.2760    1.4768 C.2         1 MS8       0.0844
      3 OXT         0.4970   45.2368    0.2046 O.co2       1 MS8      -0.5643
      4 CA         -0.2698   44.0291    2.2123 C.3         1 MS8       0.0305
      5 N          -0.9919   43.1513    1.2818 N.4         1 MS8       0.2327
      6 CB          1.0008   43.3152    2.7634 C.3         1 MS8       0.0363
      7 CAS         2.0075   44.1228    3.6714 C.3         1 MS8       0.1229
      8 CAJ         2.5896   45.4523    3.1036 C.3         1 MS8       0.0101
      9 CAN         1.4227   44.3080    5.0215 C.2         1 MS8       0.0769
     10 OAC         0.6220   45.3791    5.2896 O.co2       1 MS8      -0.5451
     11 OAE         1.7013   43.4525    6.0290 O.co2       1 MS8      -0.5451
     12 OAL         3.2303   43.3525    3.8079 O.3         1 MS8      -0.3631
     13 CAR         4.0496   43.6177    2.6504 C.3         1 MS8       0.0848
     14 CAQ         3.5654   44.9622    2.0336 C.3         1 MS8       0.0868
     15 CAH         5.5653   43.6690    2.9628 C.3         1 MS8      -0.0222
     16 CAP         6.3383   44.0855    1.6823 C.3         1 MS8      -0.0270
     17 CAG         5.7082   45.3307    0.9913 C.3         1 MS8       0.0482
     18 OAK         4.6229   45.9085    1.7551 O.3         1 MS8      -0.3740
     19 H1         -0.9501   44.2583    3.0367 H           1 MS8       0.1024
     20 H2         -1.3352   42.3391    1.7961 H           1 MS8       0.2010
     21 H3         -0.3725   42.8352    0.5276 H           1 MS8       0.2010
     22 H4         -1.7865   43.6664    0.8840 H           1 MS8       0.2010
     23 H5          1.5308   42.9063    1.9006 H           1 MS8       0.0359
     24 H6          0.6525   42.4519    3.3457 H           1 MS8       0.0359
     25 H7          3.1352   45.9817    3.8835 H           1 MS8       0.0311
     26 H8          1.8382   46.1459    2.7179 H           1 MS8       0.0311
     27 H9          3.8867   42.8062    1.9344 H           1 MS8       0.0620
     28 H10         3.0095   44.7783    1.1130 H           1 MS8       0.0622
     29 H11         5.9088   42.6967    3.3124 H           1 MS8       0.0292
     30 H12         5.7452   44.3977    3.7578 H           1 MS8       0.0292
     31 H13         6.3329   43.2511    0.9747 H           1 MS8       0.0288
     32 H14         7.3768   44.2932    1.9390 H           1 MS8       0.0288
     33 H15         5.3449   45.0685   -0.0050 H           1 MS8       0.0560
     34 H16         6.4711   46.0999    0.8551 H           1 MS8       0.0560
@<TRIPOS>BOND
     1     1     2  ar
     2     2     3  ar
     3     2     4   1
     4     4     5   1
     5     4     6   1
     6     6     7   1
     7     7     8   1
     8     7     9   1
     9     7    12   1
    10     8    14   1
    11     9    10  ar
    12     9    11  ar
    13    12    13   1
    14    13    14   1
    15    13    15   1
    16    14    18   1
    17    15    16   1
    18    16    17   1
    19    17    18   1
    20     4    19   1
    21     5    20   1
    22     5    21   1
    23     5    22   1
    24     6    23   1
    25     6    24   1
    26     8    25   1
    27     8    26   1
    28    13    27   1
    29    14    28   1
    30    15    29   1
    31    15    30   1
    32    16    31   1
    33    16    32   1
    34    17    33   1
    35    17    34   1
@<TRIPOS>SUBSTRUCTURE
     1  MS8      2

