@<TRIPOS>MOLECULE
3gbb_ligand_059
    34    35
SMALL
GAST_HUCK
****
This file was generated by PARSER (from files_GN.cpp)

@<TRIPOS>ATOM
      1 O           3.3958   40.6826    2.6997 O.co2       1 MS8      -0.5643
      2 C           3.0803   40.9315    3.9930 C.2         1 MS8       0.0844
      3 OXT         4.0120   40.6657    4.9397 O.co2       1 MS8      -0.5643
      4 CA          1.7573   41.4940    4.3308 C.3         1 MS8       0.0305
      5 N           1.4662   41.2950    5.7596 N.4         1 MS8       0.2327
      6 CB          1.5341   42.9609    3.8267 C.3         1 MS8       0.0363
      7 CAS         2.5568   44.1216    4.1786 C.3         1 MS8       0.1229
      8 CAJ         2.5489   45.2315    3.0712 C.3         1 MS8       0.0101
      9 CAN         2.3530   44.7202    5.5142 C.2         1 MS8       0.0769
     10 OAC         2.9216   45.9184    5.8107 O.co2       1 MS8      -0.5451
     11 OAE         1.6823   44.0888    6.5177 O.co2       1 MS8      -0.5451
     12 OAL         3.9128   43.6412    4.1540 O.3         1 MS8      -0.3631
     13 CAR         4.3900   43.6848    2.8054 C.3         1 MS8       0.0848
     14 CAQ         3.5684   44.7393    2.0221 C.3         1 MS8       0.0868
     15 CAH         5.9071   43.9956    2.7981 C.3         1 MS8      -0.0222
     16 CAP         6.3966   44.3071    1.3610 C.3         1 MS8      -0.0270
     17 CAG         5.5156   45.3859    0.6731 C.3         1 MS8       0.0482
     18 OAK         4.3720   45.8109    1.4596 O.3         1 MS8      -0.3740
     19 H1          1.0160   40.8704    3.8138 H           1 MS8       0.1024
     20 H2          0.4893   41.5485    5.9374 H           1 MS8       0.2010
     21 H3          2.0887   41.8633    6.3340 H           1 MS8       0.2010
     22 H4          1.5944   40.3039    5.9916 H           1 MS8       0.2010
     23 H5          0.5425   43.2738    4.1673 H           1 MS8       0.0359
     24 H6          1.4548   42.8849    2.7412 H           1 MS8       0.0359
     25 H7          2.8884   46.1991    3.4643 H           1 MS8       0.0311
     26 H8          1.5547   45.3718    2.6274 H           1 MS8       0.0311
     27 H9          4.2261   42.6942    2.3729 H           1 MS8       0.0620
     28 H10         3.0189   44.2466    1.2115 H           1 MS8       0.0622
     29 H11         6.4570   43.1458    3.2058 H           1 MS8       0.0292
     30 H12         6.0968   44.8703    3.4328 H           1 MS8       0.0292
     31 H13         6.3732   43.3803    0.7758 H           1 MS8       0.0288
     32 H14         7.4405   44.6423    1.4058 H           1 MS8       0.0288
     33 H15         5.1836   45.0218   -0.3002 H           1 MS8       0.0560
     34 H16         6.1224   46.2722    0.4774 H           1 MS8       0.0560
@<TRIPOS>BOND
     1     1     2  ar
     2     2     3  ar
     3     2     4   1
     4     4     5   1
     5     4     6   1
     6     6     7   1
     7     7     8   1
     8     7     9   1
     9     7    12   1
    10     8    14   1
    11     9    10  ar
    12     9    11  ar
    13    12    13   1
    14    13    14   1
    15    13    15   1
    16    14    18   1
    17    15    16   1
    18    16    17   1
    19    17    18   1
    20     4    19   1
    21     5    20   1
    22     5    21   1
    23     5    22   1
    24     6    23   1
    25     6    24   1
    26     8    25   1
    27     8    26   1
    28    13    27   1
    29    14    28   1
    30    15    29   1
    31    15    30   1
    32    16    31   1
    33    16    32   1
    34    17    33   1
    35    17    34   1
@<TRIPOS>SUBSTRUCTURE
     1  MS8      2

