@<TRIPOS>MOLECULE
3gbb_ligand_042
    34    35
SMALL
GAST_HUCK
****
This file was generated by PARSER (from files_GN.cpp)

@<TRIPOS>ATOM
      1 O           5.0969   41.9298    6.8918 O.co2       1 MS8      -0.5643
      2 C           4.5314   41.2091    5.8891 C.2         1 MS8       0.0844
      3 OXT         4.8884   39.9139    5.7726 O.co2       1 MS8      -0.5643
      4 CA          3.3650   41.7280    5.1164 C.3         1 MS8       0.0305
      5 N           2.1252   41.3515    5.8450 N.4         1 MS8       0.2327
      6 CB          3.3869   43.2789    4.8164 C.3         1 MS8       0.0363
      7 CAS         3.4248   43.7365    3.2949 C.3         1 MS8       0.1229
      8 CAJ         2.3954   44.8842    3.0236 C.3         1 MS8       0.0101
      9 CAN         4.8072   44.0988    2.8326 C.2         1 MS8       0.0769
     10 OAC         5.9431   43.6881    3.4633 O.co2       1 MS8      -0.5451
     11 OAE         4.9878   44.7874    1.6769 O.co2       1 MS8      -0.5451
     12 OAL         2.9476   42.7011    2.4279 O.3         1 MS8      -0.3631
     13 CAR         1.5142   42.7237    2.4193 C.3         1 MS8       0.0848
     14 CAQ         1.0616   44.1465    2.8390 C.3         1 MS8       0.0868
     15 CAH         0.9731   42.3345    1.0259 C.3         1 MS8      -0.0222
     16 CAP        -0.5480   42.5985    0.9219 C.3         1 MS8      -0.0270
     17 CAG        -0.9308   43.9942    1.4869 C.3         1 MS8       0.0482
     18 OAK         0.2185   44.7882    1.8605 O.3         1 MS8      -0.3740
     19 H1          3.3186   41.1671    4.1748 H           1 MS8       0.1024
     20 H2          1.3144   41.7483    5.3472 H           1 MS8       0.2010
     21 H3          2.1577   41.7153    6.8063 H           1 MS8       0.2010
     22 H4          2.0506   40.3286    5.8667 H           1 MS8       0.2010
     23 H5          4.2172   43.7588    5.3631 H           1 MS8       0.0359
     24 H6          2.4879   43.7101    5.2896 H           1 MS8       0.0359
     25 H7          2.6372   45.4179    2.1021 H           1 MS8       0.0311
     26 H8          2.3590   45.6114    3.8425 H           1 MS8       0.0311
     27 H9          1.1592   41.9962    3.1578 H           1 MS8       0.0620
     28 H10         0.5260   44.1137    3.7893 H           1 MS8       0.0622
     29 H11         1.2002   41.2872    0.8181 H           1 MS8       0.0292
     30 H12         1.4748   42.9502    0.2775 H           1 MS8       0.0292
     31 H13        -1.0840   41.8238    1.4642 H           1 MS8       0.0288
     32 H14        -0.8423   42.5203   -0.1271 H           1 MS8       0.0288
     33 H15        -1.5804   43.8878    2.3559 H           1 MS8       0.0560
     34 H16        -1.4913   44.5502    0.7276 H           1 MS8       0.0560
@<TRIPOS>BOND
     1     1     2  ar
     2     2     3  ar
     3     2     4   1
     4     4     5   1
     5     4     6   1
     6     6     7   1
     7     7     8   1
     8     7     9   1
     9     7    12   1
    10     8    14   1
    11     9    10  ar
    12     9    11  ar
    13    12    13   1
    14    13    14   1
    15    13    15   1
    16    14    18   1
    17    15    16   1
    18    16    17   1
    19    17    18   1
    20     4    19   1
    21     5    20   1
    22     5    21   1
    23     5    22   1
    24     6    23   1
    25     6    24   1
    26     8    25   1
    27     8    26   1
    28    13    27   1
    29    14    28   1
    30    15    29   1
    31    15    30   1
    32    16    31   1
    33    16    32   1
    34    17    33   1
    35    17    34   1
@<TRIPOS>SUBSTRUCTURE
     1  MS8      2

