@<TRIPOS>MOLECULE
3gbb_ligand_071
    34    35
SMALL
GAST_HUCK
****
This file was generated by PARSER (from files_GN.cpp)

@<TRIPOS>ATOM
      1 O           0.2310   48.0561    4.0334 O.co2       1 MS8      -0.5643
      2 C           1.5708   47.9593    4.2250 C.2         1 MS8       0.0844
      3 OXT         2.3812   48.8087    3.5421 O.co2       1 MS8      -0.5643
      4 CA          2.1287   46.9626    5.1598 C.3         1 MS8       0.0305
      5 N           1.1239   46.7062    6.1993 N.4         1 MS8       0.2327
      6 CB          2.5541   45.6184    4.4931 C.3         1 MS8       0.0363
      7 CAS         1.4094   44.6233    4.0878 C.3         1 MS8       0.1229
      8 CAJ         1.9140   43.5739    3.0520 C.3         1 MS8       0.0101
      9 CAN         0.8416   43.9382    5.2756 C.2         1 MS8       0.0769
     10 OAC         1.4598   42.8747    5.8381 O.co2       1 MS8      -0.5451
     11 OAE        -0.2981   44.3854    5.8472 O.co2       1 MS8      -0.5451
     12 OAL         0.3797   45.3885    3.4233 O.3         1 MS8      -0.3631
     13 CAR         0.2233   44.9485    2.0635 C.3         1 MS8       0.0848
     14 CAQ         1.5230   44.1962    1.7064 C.3         1 MS8       0.0868
     15 CAH        -1.0503   44.0705    1.9242 C.3         1 MS8      -0.0222
     16 CAP        -1.0387   43.2714    0.5986 C.3         1 MS8      -0.0270
     17 CAG         0.2678   42.4512    0.4896 C.3         1 MS8       0.0482
     18 OAK         1.4308   43.2938    0.5802 O.3         1 MS8      -0.3740
     19 H1          2.9943   47.3968    5.6643 H           1 MS8       0.1024
     20 H2          1.4942   46.0354    6.8745 H           1 MS8       0.2010
     21 H3          0.2747   46.3263    5.7740 H           1 MS8       0.2010
     22 H4          0.8950   47.5797    6.6813 H           1 MS8       0.2010
     23 H5          3.2704   45.1095    5.1511 H           1 MS8       0.0359
     24 H6          3.0984   45.8926    3.5847 H           1 MS8       0.0359
     25 H7          1.4076   42.6119    3.1769 H           1 MS8       0.0311
     26 H8          2.9921   43.3964    3.1111 H           1 MS8       0.0311
     27 H9          0.1171   45.8268    1.4168 H           1 MS8       0.0620
     28 H10         2.2860   44.9311    1.4422 H           1 MS8       0.0622
     29 H11        -1.9380   44.7046    1.9591 H           1 MS8       0.0292
     30 H12        -1.1134   43.3679    2.7582 H           1 MS8       0.0292
     31 H13        -1.1057   43.9627   -0.2458 H           1 MS8       0.0288
     32 H14        -1.9016   42.6015    0.5631 H           1 MS8       0.0288
     33 H15         0.2920   41.9484   -0.4798 H           1 MS8       0.0560
     34 H16         0.2956   41.6801    1.2620 H           1 MS8       0.0560
@<TRIPOS>BOND
     1     1     2  ar
     2     2     3  ar
     3     2     4   1
     4     4     5   1
     5     4     6   1
     6     6     7   1
     7     7     8   1
     8     7     9   1
     9     7    12   1
    10     8    14   1
    11     9    10  ar
    12     9    11  ar
    13    12    13   1
    14    13    14   1
    15    13    15   1
    16    14    18   1
    17    15    16   1
    18    16    17   1
    19    17    18   1
    20     4    19   1
    21     5    20   1
    22     5    21   1
    23     5    22   1
    24     6    23   1
    25     6    24   1
    26     8    25   1
    27     8    26   1
    28    13    27   1
    29    14    28   1
    30    15    29   1
    31    15    30   1
    32    16    31   1
    33    16    32   1
    34    17    33   1
    35    17    34   1
@<TRIPOS>SUBSTRUCTURE
     1  MS8      2

