@<TRIPOS>MOLECULE
3gbb_ligand_055
    34    35
SMALL
GAST_HUCK
****
This file was generated by PARSER (from files_GN.cpp)

@<TRIPOS>ATOM
      1 O           0.1511   39.6260    1.8901 O.co2       1 MS8      -0.5643
      2 C           1.1539   40.4977    2.1634 C.2         1 MS8       0.0844
      3 OXT         2.3398   39.9951    2.5728 O.co2       1 MS8      -0.5643
      4 CA          0.9913   41.9556    1.9841 C.3         1 MS8       0.0305
      5 N          -0.2604   42.2555    1.2653 N.4         1 MS8       0.2327
      6 CB          1.0651   42.7477    3.3486 C.3         1 MS8       0.0363
      7 CAS         2.2681   43.7471    3.5047 C.3         1 MS8       0.1229
      8 CAJ         2.0764   44.7134    4.7099 C.3         1 MS8       0.0101
      9 CAN         3.5681   43.0219    3.5774 C.2         1 MS8       0.0769
     10 OAC         4.4796   43.2350    4.5547 O.co2       1 MS8      -0.5451
     11 OAE         3.9036   42.1391    2.6128 O.co2       1 MS8      -0.5451
     12 OAL         2.3378   44.6431    2.3810 O.3         1 MS8      -0.3631
     13 CAR         1.4653   45.7543    2.6128 C.3         1 MS8       0.0848
     14 CAQ         1.2438   45.8785    4.1503 C.3         1 MS8       0.0868
     15 CAH         2.0992   47.0301    2.0079 C.3         1 MS8      -0.0222
     16 CAP         1.3503   48.2986    2.4902 C.3         1 MS8      -0.0270
     17 CAG         1.0954   48.2915    4.0250 C.3         1 MS8       0.0482
     18 OAK         1.6724   47.1472    4.6956 O.3         1 MS8      -0.3740
     19 H1          1.7903   42.2835    1.3150 H           1 MS8       0.1024
     20 H2         -0.3178   43.2572    1.0645 H           1 MS8       0.2010
     21 H3         -1.0616   41.9758    1.8436 H           1 MS8       0.2010
     22 H4         -0.2806   41.7248    0.3863 H           1 MS8       0.2010
     23 H5          1.0871   42.0546    4.1947 H           1 MS8       0.0359
     24 H6          0.1323   43.3061    3.4668 H           1 MS8       0.0359
     25 H7          3.0303   45.1278    5.0559 H           1 MS8       0.0311
     26 H8          1.5767   44.2355    5.5588 H           1 MS8       0.0311
     27 H9          0.5098   45.5642    2.1115 H           1 MS8       0.0620
     28 H10         0.1870   45.7170    4.3818 H           1 MS8       0.0622
     29 H11         2.0894   46.9752    0.9133 H           1 MS8       0.0292
     30 H12         3.1405   47.0948    2.3318 H           1 MS8       0.0292
     31 H13         0.3868   48.3533    1.9755 H           1 MS8       0.0288
     32 H14         1.9292   49.1795    2.2027 H           1 MS8       0.0288
     33 H15         0.0198   48.3125    4.2158 H           1 MS8       0.0560
     34 H16         1.5227   49.1924    4.4737 H           1 MS8       0.0560
@<TRIPOS>BOND
     1     1     2  ar
     2     2     3  ar
     3     2     4   1
     4     4     5   1
     5     4     6   1
     6     6     7   1
     7     7     8   1
     8     7     9   1
     9     7    12   1
    10     8    14   1
    11     9    10  ar
    12     9    11  ar
    13    12    13   1
    14    13    14   1
    15    13    15   1
    16    14    18   1
    17    15    16   1
    18    16    17   1
    19    17    18   1
    20     4    19   1
    21     5    20   1
    22     5    21   1
    23     5    22   1
    24     6    23   1
    25     6    24   1
    26     8    25   1
    27     8    26   1
    28    13    27   1
    29    14    28   1
    30    15    29   1
    31    15    30   1
    32    16    31   1
    33    16    32   1
    34    17    33   1
    35    17    34   1
@<TRIPOS>SUBSTRUCTURE
     1  MS8      2

