@<TRIPOS>MOLECULE
3gbb_ligand_045
    34    35
SMALL
GAST_HUCK
****
This file was generated by PARSER (from files_GN.cpp)

@<TRIPOS>ATOM
      1 O           1.7929   44.0145    6.6674 O.co2       1 MS8      -0.5643
      2 C           2.7263   43.2032    6.1343 C.2         1 MS8       0.0844
      3 OXT         3.9984   43.6482    6.0580 O.co2       1 MS8      -0.5643
      4 CA          2.3633   41.8452    5.6494 C.3         1 MS8       0.0305
      5 N           2.0554   40.9914    6.8040 N.4         1 MS8       0.2327
      6 CB          1.1840   41.8393    4.6243 C.3         1 MS8       0.0363
      7 CAS         1.5861   41.6320    3.1186 C.3         1 MS8       0.1229
      8 CAJ         2.3831   42.8166    2.5109 C.3         1 MS8       0.0101
      9 CAN         2.2242   40.2906    2.9415 C.2         1 MS8       0.0769
     10 OAC         1.5754   39.1726    3.3043 O.co2       1 MS8      -0.5451
     11 OAE         3.4986   40.1678    2.5115 O.co2       1 MS8      -0.5451
     12 OAL         0.4038   41.5723    2.3068 O.3         1 MS8      -0.3631
     13 CAR         0.0492   42.9012    1.8978 C.3         1 MS8       0.0848
     14 CAQ         1.2974   43.8051    2.0567 C.3         1 MS8       0.0868
     15 CAH        -0.4788   42.8620    0.4439 C.3         1 MS8      -0.0222
     16 CAP        -0.6334   44.2975   -0.1204 C.3         1 MS8      -0.0270
     17 CAG         0.5830   45.2092    0.2260 C.3         1 MS8       0.0482
     18 OAK         1.6733   44.4932    0.8398 O.3         1 MS8      -0.3740
     19 H1          3.2509   41.4033    5.1931 H           1 MS8       0.1024
     20 H2          1.8588   40.0459    6.4639 H           1 MS8       0.2010
     21 H3          1.2377   41.3262    7.3160 H           1 MS8       0.2010
     22 H4          2.8604   40.9625    7.4307 H           1 MS8       0.2010
     23 H5          0.6085   42.7654    4.7176 H           1 MS8       0.0359
     24 H6          0.4887   41.0371    4.8881 H           1 MS8       0.0359
     25 H7          2.9546   42.4950    1.6382 H           1 MS8       0.0311
     26 H8          3.0779   43.2829    3.2155 H           1 MS8       0.0311
     27 H9         -0.7484   43.2617    2.5526 H           1 MS8       0.0620
     28 H10         1.1245   44.5437    2.8492 H           1 MS8       0.0622
     29 H11        -1.4395   42.3439    0.4120 H           1 MS8       0.0292
     30 H12         0.2227   42.3075   -0.1847 H           1 MS8       0.0292
     31 H13        -1.5443   44.7346    0.2947 H           1 MS8       0.0288
     32 H14        -0.7619   44.2361   -1.2044 H           1 MS8       0.0288
     33 H15         0.2710   46.0192    0.8919 H           1 MS8       0.0560
     34 H16         0.9599   45.6740   -0.6873 H           1 MS8       0.0560
@<TRIPOS>BOND
     1     1     2  ar
     2     2     3  ar
     3     2     4   1
     4     4     5   1
     5     4     6   1
     6     6     7   1
     7     7     8   1
     8     7     9   1
     9     7    12   1
    10     8    14   1
    11     9    10  ar
    12     9    11  ar
    13    12    13   1
    14    13    14   1
    15    13    15   1
    16    14    18   1
    17    15    16   1
    18    16    17   1
    19    17    18   1
    20     4    19   1
    21     5    20   1
    22     5    21   1
    23     5    22   1
    24     6    23   1
    25     6    24   1
    26     8    25   1
    27     8    26   1
    28    13    27   1
    29    14    28   1
    30    15    29   1
    31    15    30   1
    32    16    31   1
    33    16    32   1
    34    17    33   1
    35    17    34   1
@<TRIPOS>SUBSTRUCTURE
     1  MS8      2

