@<TRIPOS>MOLECULE
3gbb_ligand_007
    34    35
SMALL
GAST_HUCK
****
This file was generated by PARSER (from files_GN.cpp)

@<TRIPOS>ATOM
      1 O           1.3850   48.2705    5.0182 O.co2       1 MS8      -0.5643
      2 C           1.3579   46.9756    4.6321 C.2         1 MS8       0.0844
      3 OXT         0.3328   46.5734    3.8462 O.co2       1 MS8      -0.5643
      4 CA          2.1742   45.9826    5.3667 C.3         1 MS8       0.0305
      5 N           1.3821   45.5334    6.5281 N.4         1 MS8       0.2327
      6 CB          2.6907   44.8325    4.4367 C.3         1 MS8       0.0363
      7 CAS         2.9997   43.4130    5.0613 C.3         1 MS8       0.1229
      8 CAJ         3.7845   42.5154    4.0557 C.3         1 MS8       0.0101
      9 CAN         3.7102   43.4331    6.3671 C.2         1 MS8       0.0769
     10 OAC         3.9021   44.5708    7.0712 O.co2       1 MS8      -0.5451
     11 OAE         4.3048   42.2926    6.8091 O.co2       1 MS8      -0.5451
     12 OAL         1.7294   42.7559    5.2710 O.3         1 MS8      -0.3631
     13 CAR         1.4951   41.7783    4.2388 C.3         1 MS8       0.0848
     14 CAQ         2.6699   41.8709    3.2274 C.3         1 MS8       0.0868
     15 CAH         1.3352   40.3783    4.8987 C.3         1 MS8      -0.0222
     16 CAP         1.6195   39.2228    3.9042 C.3         1 MS8      -0.0270
     17 CAG         3.0134   39.4256    3.2709 C.3         1 MS8       0.0482
     18 OAK         3.0592   40.6633    2.5409 O.3         1 MS8      -0.3740
     19 H1          3.0495   46.4958    5.7777 H           1 MS8       0.1024
     20 H2          1.9220   44.8247    7.0507 H           1 MS8       0.2010
     21 H3          0.4815   45.1372    6.2094 H           1 MS8       0.2010
     22 H4          1.2032   46.3459    7.1441 H           1 MS8       0.2010
     23 H5          3.5993   45.2002    3.9541 H           1 MS8       0.0359
     24 H6          1.9649   44.6815    3.6287 H           1 MS8       0.0359
     25 H7          4.3621   41.7340    4.5606 H           1 MS8       0.0311
     26 H8          4.4669   43.0853    3.4168 H           1 MS8       0.0311
     27 H9          0.5615   42.0300    3.7284 H           1 MS8       0.0620
     28 H10         2.3897   42.5740    2.4367 H           1 MS8       0.0622
     29 H11         0.3184   40.2696    5.2947 H           1 MS8       0.0292
     30 H12         2.0252   40.2870    5.7416 H           1 MS8       0.0292
     31 H13         0.8671   39.2208    3.1115 H           1 MS8       0.0288
     32 H14         1.5806   38.2594    4.4202 H           1 MS8       0.0288
     33 H15         3.2029   38.6080    2.5732 H           1 MS8       0.0560
     34 H16         3.7890   39.4007    4.0393 H           1 MS8       0.0560
@<TRIPOS>BOND
     1     1     2  ar
     2     2     3  ar
     3     2     4   1
     4     4     5   1
     5     4     6   1
     6     6     7   1
     7     7     8   1
     8     7     9   1
     9     7    12   1
    10     8    14   1
    11     9    10  ar
    12     9    11  ar
    13    12    13   1
    14    13    14   1
    15    13    15   1
    16    14    18   1
    17    15    16   1
    18    16    17   1
    19    17    18   1
    20     4    19   1
    21     5    20   1
    22     5    21   1
    23     5    22   1
    24     6    23   1
    25     6    24   1
    26     8    25   1
    27     8    26   1
    28    13    27   1
    29    14    28   1
    30    15    29   1
    31    15    30   1
    32    16    31   1
    33    16    32   1
    34    17    33   1
    35    17    34   1
@<TRIPOS>SUBSTRUCTURE
     1  MS8      2

