@<TRIPOS>MOLECULE
3gbb_ligand_023
    34    35
SMALL
GAST_HUCK
****
This file was generated by PARSER (from files_GN.cpp)

@<TRIPOS>ATOM
      1 O           0.2069   46.5284    6.9029 O.co2       1 MS8      -0.5643
      2 C           1.3246   46.9381    6.2512 C.2         1 MS8       0.0844
      3 OXT         1.4399   48.2576    6.0374 O.co2       1 MS8      -0.5643
      4 CA          2.5500   46.1014    6.2325 C.3         1 MS8       0.0305
      5 N           3.4391   46.4723    7.3469 N.4         1 MS8       0.2327
      6 CB          2.2846   44.5547    6.1914 C.3         1 MS8       0.0363
      7 CAS         2.7781   43.8225    4.8994 C.3         1 MS8       0.1229
      8 CAJ         2.0099   44.3005    3.6239 C.3         1 MS8       0.0101
      9 CAN         4.2682   43.8707    4.8030 C.2         1 MS8       0.0769
     10 OAC         5.0432   43.6540    5.8860 O.co2       1 MS8      -0.5451
     11 OAE         4.9163   43.8649    3.6149 O.co2       1 MS8      -0.5451
     12 OAL         2.4379   42.4313    5.0776 O.3         1 MS8      -0.3631
     13 CAR         1.4216   42.0348    4.1373 C.3         1 MS8       0.0848
     14 CAQ         0.8299   43.3272    3.5435 C.3         1 MS8       0.0868
     15 CAH         2.0673   41.1108    3.0727 C.3         1 MS8      -0.0222
     16 CAP         1.2118   41.0060    1.7831 C.3         1 MS8      -0.0270
     17 CAG         0.8696   42.4141    1.2549 C.3         1 MS8       0.0482
     18 OAK         0.1851   43.1948    2.2520 O.3         1 MS8      -0.3740
     19 H1          3.0951   46.3841    5.3330 H           1 MS8       0.1024
     20 H2          4.3286   45.9770    7.2320 H           1 MS8       0.2010
     21 H3          3.0257   46.2133    8.2472 H           1 MS8       0.2010
     22 H4          3.6170   47.4781    7.3335 H           1 MS8       0.2010
     23 H5          1.2204   44.3527    6.3193 H           1 MS8       0.0359
     24 H6          2.7655   44.0826    7.0509 H           1 MS8       0.0359
     25 H7          2.6237   44.2259    2.7262 H           1 MS8       0.0311
     26 H8          1.6506   45.3286    3.6939 H           1 MS8       0.0311
     27 H9          0.6444   41.4798    4.6738 H           1 MS8       0.0620
     28 H10         0.0517   43.6940    4.2202 H           1 MS8       0.0622
     29 H11         2.2097   40.1145    3.4944 H           1 MS8       0.0292
     30 H12         3.0516   41.5018    2.8022 H           1 MS8       0.0292
     31 H13         0.2871   40.4638    2.0013 H           1 MS8       0.0288
     32 H14         1.7659   40.4509    1.0225 H           1 MS8       0.0288
     33 H15         0.2112   42.3202    0.3865 H           1 MS8       0.0560
     34 H16         1.7730   42.9326    0.9251 H           1 MS8       0.0560
@<TRIPOS>BOND
     1     1     2  ar
     2     2     3  ar
     3     2     4   1
     4     4     5   1
     5     4     6   1
     6     6     7   1
     7     7     8   1
     8     7     9   1
     9     7    12   1
    10     8    14   1
    11     9    10  ar
    12     9    11  ar
    13    12    13   1
    14    13    14   1
    15    13    15   1
    16    14    18   1
    17    15    16   1
    18    16    17   1
    19    17    18   1
    20     4    19   1
    21     5    20   1
    22     5    21   1
    23     5    22   1
    24     6    23   1
    25     6    24   1
    26     8    25   1
    27     8    26   1
    28    13    27   1
    29    14    28   1
    30    15    29   1
    31    15    30   1
    32    16    31   1
    33    16    32   1
    34    17    33   1
    35    17    34   1
@<TRIPOS>SUBSTRUCTURE
     1  MS8      2

