@<TRIPOS>MOLECULE
3gbb_ligand_053
    34    35
SMALL
GAST_HUCK
****
This file was generated by PARSER (from files_GN.cpp)

@<TRIPOS>ATOM
      1 O           2.9080   45.8759    2.1201 O.co2       1 MS8      -0.5643
      2 C           4.1079   45.4116    1.7010 C.2         1 MS8       0.0844
      3 OXT         4.5962   45.9245    0.5455 O.co2       1 MS8      -0.5643
      4 CA          4.7786   44.2722    2.3759 C.3         1 MS8       0.0305
      5 N           6.2031   44.2441    2.0220 N.4         1 MS8       0.2327
      6 CB          4.5871   44.2471    3.9299 C.3         1 MS8       0.0363
      7 CAS         3.3588   43.4673    4.5585 C.3         1 MS8       0.1229
      8 CAJ         3.6607   41.9714    4.8696 C.3         1 MS8       0.0101
      9 CAN         2.9039   44.1442    5.8078 C.2         1 MS8       0.0769
     10 OAC         1.7111   43.8020    6.3430 O.co2       1 MS8      -0.5451
     11 OAE         3.8150   44.6355    6.6817 O.co2       1 MS8      -0.5451
     12 OAL         2.2102   43.4302    3.6813 O.3         1 MS8      -0.3631
     13 CAR         2.2027   42.1985    2.9379 C.3         1 MS8       0.0848
     14 CAQ         3.1803   41.2108    3.6295 C.3         1 MS8       0.0868
     15 CAH         0.7965   41.5805    2.7695 C.3         1 MS8      -0.0222
     16 CAP         0.9419   40.1837    2.1101 C.3         1 MS8      -0.0270
     17 CAG         1.9131   39.2729    2.9229 C.3         1 MS8       0.0482
     18 OAK         2.5649   39.9608    4.0094 O.3         1 MS8      -0.3740
     19 H1          4.4089   43.3511    1.9437 H           1 MS8       0.1024
     20 H2          6.5617   43.3070    2.2401 H           1 MS8       0.2010
     21 H3          6.7069   44.9654    2.5460 H           1 MS8       0.2010
     22 H4          6.3123   44.4086    1.0147 H           1 MS8       0.2010
     23 H5          4.5508   45.2919    4.2519 H           1 MS8       0.0359
     24 H6          5.5006   43.8483    4.3819 H           1 MS8       0.0359
     25 H7          3.0921   41.6209    5.7403 H           1 MS8       0.0311
     26 H8          4.7185   41.7788    5.0723 H           1 MS8       0.0311
     27 H9          2.5350   42.4183    1.9221 H           1 MS8       0.0620
     28 H10         4.0340   41.0119    2.9794 H           1 MS8       0.0622
     29 H11         0.1668   42.2247    2.1477 H           1 MS8       0.0292
     30 H12         0.3323   41.4821    3.7533 H           1 MS8       0.0292
     31 H13         1.3362   40.3128    1.0985 H           1 MS8       0.0288
     32 H14        -0.0376   39.7138    2.0143 H           1 MS8       0.0288
     33 H15         2.6791   38.8545    2.2637 H           1 MS8       0.0560
     34 H16         1.3583   38.4354    3.3513 H           1 MS8       0.0560
@<TRIPOS>BOND
     1     1     2  ar
     2     2     3  ar
     3     2     4   1
     4     4     5   1
     5     4     6   1
     6     6     7   1
     7     7     8   1
     8     7     9   1
     9     7    12   1
    10     8    14   1
    11     9    10  ar
    12     9    11  ar
    13    12    13   1
    14    13    14   1
    15    13    15   1
    16    14    18   1
    17    15    16   1
    18    16    17   1
    19    17    18   1
    20     4    19   1
    21     5    20   1
    22     5    21   1
    23     5    22   1
    24     6    23   1
    25     6    24   1
    26     8    25   1
    27     8    26   1
    28    13    27   1
    29    14    28   1
    30    15    29   1
    31    15    30   1
    32    16    31   1
    33    16    32   1
    34    17    33   1
    35    17    34   1
@<TRIPOS>SUBSTRUCTURE
     1  MS8      2

