@<TRIPOS>MOLECULE
3gbb_ligand_027
    34    35
SMALL
GAST_HUCK
****
This file was generated by PARSER (from files_GN.cpp)

@<TRIPOS>ATOM
      1 O           4.5853   42.7621    6.1556 O.co2       1 MS8      -0.5643
      2 C           4.5333   44.1011    6.4074 C.2         1 MS8       0.0844
      3 OXT         5.6980   44.7824    6.5345 O.co2       1 MS8      -0.5643
      4 CA          3.2365   44.7414    6.7443 C.3         1 MS8       0.0305
      5 N           3.4796   45.8115    7.7250 N.4         1 MS8       0.2327
      6 CB          2.4408   45.3218    5.5290 C.3         1 MS8       0.0363
      7 CAS         2.1265   44.3927    4.2960 C.3         1 MS8       0.1229
      8 CAJ         2.9451   44.7593    3.0049 C.3         1 MS8       0.0101
      9 CAN         2.1588   42.9281    4.6235 C.2         1 MS8       0.0769
     10 OAC         2.7905   42.0199    3.8549 O.co2       1 MS8      -0.5451
     11 OAE         1.4789   42.4670    5.6985 O.co2       1 MS8      -0.5451
     12 OAL         0.7462   44.6008    3.9362 O.3         1 MS8      -0.3631
     13 CAR         0.6390   45.1619    2.6296 C.3         1 MS8       0.0848
     14 CAQ         1.9043   44.7023    1.8668 C.3         1 MS8       0.0868
     15 CAH        -0.6957   44.7130    1.9740 C.3         1 MS8      -0.0222
     16 CAP        -0.6350   43.2685    1.4299 C.3         1 MS8      -0.0270
     17 CAG         0.6358   43.0770    0.5762 C.3         1 MS8       0.0482
     18 OAK         1.8153   43.3517    1.3625 O.3         1 MS8      -0.3740
     19 H1          2.5882   44.0075    7.2396 H           1 MS8       0.1024
     20 H2          2.6077   46.3069    7.9261 H           1 MS8       0.2010
     21 H3          4.1702   46.4675    7.3442 H           1 MS8       0.2010
     22 H4          3.8380   45.3829    8.5843 H           1 MS8       0.2010
     23 H5          2.9425   46.2355    5.1848 H           1 MS8       0.0359
     24 H6          1.4809   45.6462    5.9447 H           1 MS8       0.0359
     25 H7          3.7957   44.0953    2.8046 H           1 MS8       0.0311
     26 H8          3.3391   45.7834    3.0406 H           1 MS8       0.0311
     27 H9          0.6294   46.2495    2.7400 H           1 MS8       0.0620
     28 H10         2.1447   45.3880    1.0474 H           1 MS8       0.0622
     29 H11        -0.9298   45.3937    1.1527 H           1 MS8       0.0292
     30 H12        -1.5046   44.7885    2.7051 H           1 MS8       0.0292
     31 H13        -1.5187   43.0659    0.8231 H           1 MS8       0.0288
     32 H14        -0.6116   42.5628    2.2593 H           1 MS8       0.0288
     33 H15         0.6001   43.7173   -0.3127 H           1 MS8       0.0560
     34 H16         0.6912   42.0360    0.2432 H           1 MS8       0.0560
@<TRIPOS>BOND
     1     1     2  ar
     2     2     3  ar
     3     2     4   1
     4     4     5   1
     5     4     6   1
     6     6     7   1
     7     7     8   1
     8     7     9   1
     9     7    12   1
    10     8    14   1
    11     9    10  ar
    12     9    11  ar
    13    12    13   1
    14    13    14   1
    15    13    15   1
    16    14    18   1
    17    15    16   1
    18    16    17   1
    19    17    18   1
    20     4    19   1
    21     5    20   1
    22     5    21   1
    23     5    22   1
    24     6    23   1
    25     6    24   1
    26     8    25   1
    27     8    26   1
    28    13    27   1
    29    14    28   1
    30    15    29   1
    31    15    30   1
    32    16    31   1
    33    16    32   1
    34    17    33   1
    35    17    34   1
@<TRIPOS>SUBSTRUCTURE
     1  MS8      2

