@<TRIPOS>MOLECULE
3gbb_ligand_047
    34    35
SMALL
GAST_HUCK
****
This file was generated by PARSER (from files_GN.cpp)

@<TRIPOS>ATOM
      1 O           0.9375   48.5576    4.1215 O.co2       1 MS8      -0.5643
      2 C           1.7576   47.5598    3.7027 C.2         1 MS8       0.0844
      3 OXT         2.5211   46.9415    4.6297 O.co2       1 MS8      -0.5643
      4 CA          1.6898   47.1156    2.2971 C.3         1 MS8       0.0305
      5 N           2.5600   48.0079    1.5102 N.4         1 MS8       0.2327
      6 CB          2.0232   45.6212    1.9705 C.3         1 MS8       0.0363
      7 CAS         1.5700   44.4525    2.9310 C.3         1 MS8       0.1229
      8 CAJ         2.7739   43.9114    3.7722 C.3         1 MS8       0.0101
      9 CAN         0.3697   44.7990    3.7392 C.2         1 MS8       0.0769
     10 OAC        -0.6828   45.4154    3.1473 O.co2       1 MS8      -0.5451
     11 OAE         0.1924   44.3793    5.0119 O.co2       1 MS8      -0.5451
     12 OAL         1.1421   43.3478    2.1002 O.3         1 MS8      -0.3631
     13 CAR         1.9488   42.1854    2.3302 C.3         1 MS8       0.0848
     14 CAQ         3.2595   42.7079    2.9541 C.3         1 MS8       0.0868
     15 CAH         1.2111   41.1621    3.2373 C.3         1 MS8      -0.0222
     16 CAP         2.1840   40.1131    3.8271 C.3         1 MS8      -0.0270
     17 CAG         3.3566   40.8207    4.5452 C.3         1 MS8       0.0482
     18 OAK         4.0487   41.7225    3.6623 O.3         1 MS8      -0.3740
     19 H1          0.6661   47.2954    1.9675 H           1 MS8       0.1024
     20 H2          2.5189   47.7689    0.5185 H           1 MS8       0.2010
     21 H3          3.5279   47.9141    1.8192 H           1 MS8       0.2010
     22 H4          2.2737   48.9819    1.6390 H           1 MS8       0.2010
     23 H5          3.1028   45.5470    1.8031 H           1 MS8       0.0359
     24 H6          1.5805   45.4410    0.9829 H           1 MS8       0.0359
     25 H7          2.4817   43.5768    4.7653 H           1 MS8       0.0311
     26 H8          3.5772   44.6400    3.8932 H           1 MS8       0.0311
     27 H9          2.1528   41.7041    1.3683 H           1 MS8       0.0620
     28 H10         3.8962   43.0818    2.1442 H           1 MS8       0.0622
     29 H11         0.4438   40.6521    2.6479 H           1 MS8       0.0292
     30 H12         0.7149   41.6840    4.0589 H           1 MS8       0.0292
     31 H13         2.5762   39.4845    3.0232 H           1 MS8       0.0288
     32 H14         1.6481   39.4739    4.5342 H           1 MS8       0.0288
     33 H15         4.0715   40.0690    4.8832 H           1 MS8       0.0560
     34 H16         2.9948   41.3524    5.4277 H           1 MS8       0.0560
@<TRIPOS>BOND
     1     1     2  ar
     2     2     3  ar
     3     2     4   1
     4     4     5   1
     5     4     6   1
     6     6     7   1
     7     7     8   1
     8     7     9   1
     9     7    12   1
    10     8    14   1
    11     9    10  ar
    12     9    11  ar
    13    12    13   1
    14    13    14   1
    15    13    15   1
    16    14    18   1
    17    15    16   1
    18    16    17   1
    19    17    18   1
    20     4    19   1
    21     5    20   1
    22     5    21   1
    23     5    22   1
    24     6    23   1
    25     6    24   1
    26     8    25   1
    27     8    26   1
    28    13    27   1
    29    14    28   1
    30    15    29   1
    31    15    30   1
    32    16    31   1
    33    16    32   1
    34    17    33   1
    35    17    34   1
@<TRIPOS>SUBSTRUCTURE
     1  MS8      2

