@<TRIPOS>MOLECULE
3gbb_ligand_010
    34    35
SMALL
GAST_HUCK
****
This file was generated by PARSER (from files_GN.cpp)

@<TRIPOS>ATOM
      1 O           4.1224   43.2318    6.0930 O.co2       1 MS8      -0.5643
      2 C           2.7915   43.4453    6.2242 C.2         1 MS8       0.0844
      3 OXT         1.9914   42.3843    6.4609 O.co2       1 MS8      -0.5643
      4 CA          2.2089   44.7903    6.0498 C.3         1 MS8       0.0305
      5 N           2.9408   45.6883    6.9705 N.4         1 MS8       0.2327
      6 CB          2.2103   45.3563    4.5835 C.3         1 MS8       0.0363
      7 CAS         2.4012   44.4026    3.3377 C.3         1 MS8       0.1229
      8 CAJ         2.2144   45.1714    1.9963 C.3         1 MS8       0.0101
      9 CAN         3.7123   43.7011    3.3365 C.2         1 MS8       0.0769
     10 OAC         4.8403   44.3785    3.6988 O.co2       1 MS8      -0.5451
     11 OAE         3.8767   42.5651    2.6127 O.co2       1 MS8      -0.5451
     12 OAL         1.3700   43.3986    3.3662 O.3         1 MS8      -0.3631
     13 CAR         0.4068   43.6221    2.3276 C.3         1 MS8       0.0848
     14 CAQ         0.7455   44.9551    1.6154 C.3         1 MS8       0.0868
     15 CAH         0.4148   42.4460    1.3175 C.3         1 MS8      -0.0222
     16 CAP        -0.5184   42.7178    0.1066 C.3         1 MS8      -0.0270
     17 CAG        -0.5717   44.2220   -0.2976 C.3         1 MS8       0.0482
     18 OAK         0.5784   44.9491    0.1749 O.3         1 MS8      -0.3740
     19 H1          1.1742   44.7563    6.4108 H           1 MS8       0.1024
     20 H2          2.3616   46.4832    7.2399 H           1 MS8       0.2010
     21 H3          3.8023   46.0195    6.5285 H           1 MS8       0.2010
     22 H4          3.1897   45.1848    7.8233 H           1 MS8       0.2010
     23 H5          2.9782   46.1319    4.5070 H           1 MS8       0.0359
     24 H6          1.2502   45.8723    4.4573 H           1 MS8       0.0359
     25 H7          2.8453   44.7634    1.2031 H           1 MS8       0.0311
     26 H8          2.4504   46.2350    2.0815 H           1 MS8       0.0311
     27 H9         -0.5791   43.6910    2.7845 H           1 MS8       0.0620
     28 H10         0.1357   45.7652    2.0381 H           1 MS8       0.0622
     29 H11         0.1085   41.5265    1.8137 H           1 MS8       0.0292
     30 H12         1.4320   42.3037    0.9441 H           1 MS8       0.0292
     31 H13        -1.5361   42.3813    0.3469 H           1 MS8       0.0288
     32 H14        -0.1759   42.1282   -0.7538 H           1 MS8       0.0288
     33 H15        -1.4895   44.6788    0.0941 H           1 MS8       0.0560
     34 H16        -0.6094   44.3034   -1.3878 H           1 MS8       0.0560
@<TRIPOS>BOND
     1     1     2  ar
     2     2     3  ar
     3     2     4   1
     4     4     5   1
     5     4     6   1
     6     6     7   1
     7     7     8   1
     8     7     9   1
     9     7    12   1
    10     8    14   1
    11     9    10  ar
    12     9    11  ar
    13    12    13   1
    14    13    14   1
    15    13    15   1
    16    14    18   1
    17    15    16   1
    18    16    17   1
    19    17    18   1
    20     4    19   1
    21     5    20   1
    22     5    21   1
    23     5    22   1
    24     6    23   1
    25     6    24   1
    26     8    25   1
    27     8    26   1
    28    13    27   1
    29    14    28   1
    30    15    29   1
    31    15    30   1
    32    16    31   1
    33    16    32   1
    34    17    33   1
    35    17    34   1
@<TRIPOS>SUBSTRUCTURE
     1  MS8      2

