@<TRIPOS>MOLECULE
3gbb_ligand_013
    34    35
SMALL
GAST_HUCK
****
This file was generated by PARSER (from files_GN.cpp)

@<TRIPOS>ATOM
      1 O           1.1791   40.8284    3.1715 O.co2       1 MS8      -0.5643
      2 C           1.2748   41.3924    1.9496 C.2         1 MS8       0.0844
      3 OXT         1.6579   40.5725    0.9471 O.co2       1 MS8      -0.5643
      4 CA          0.5566   42.6517    1.6055 C.3         1 MS8       0.0305
      5 N          -0.7443   42.3035    1.0138 N.4         1 MS8       0.2327
      6 CB          0.3843   43.6508    2.8027 C.3         1 MS8       0.0363
      7 CAS         1.4372   44.8119    2.9086 C.3         1 MS8       0.1229
      8 CAJ         2.9361   44.4089    2.9748 C.3         1 MS8       0.0101
      9 CAN         1.1878   45.8186    1.8413 C.2         1 MS8       0.0769
     10 OAC         0.1449   46.6680    1.9611 O.co2       1 MS8      -0.5451
     11 OAE         1.7045   45.6557    0.6065 O.co2       1 MS8      -0.5451
     12 OAL         1.2592   45.4912    4.1622 O.3         1 MS8      -0.3631
     13 CAR         2.0757   44.8593    5.1716 C.3         1 MS8       0.0848
     14 CAQ         3.1756   44.0442    4.4464 C.3         1 MS8       0.0868
     15 CAH         2.6787   45.9295    6.1112 C.3         1 MS8      -0.0222
     16 CAP         3.7780   45.3331    7.0273 C.3         1 MS8      -0.0270
     17 CAG         4.7388   44.3738    6.2671 C.3         1 MS8       0.0482
     18 OAK         4.5289   44.3650    4.8418 O.3         1 MS8      -0.3740
     19 H1          1.1114   43.1385    0.8049 H           1 MS8       0.1024
     20 H2         -1.1811   43.1513    0.6320 H           1 MS8       0.2010
     21 H3         -1.3576   41.9068    1.7295 H           1 MS8       0.2010
     22 H4         -0.6177   41.6283    0.2577 H           1 MS8       0.2010
     23 H5          0.3693   43.0904    3.7381 H           1 MS8       0.0359
     24 H6         -0.6147   44.0929    2.7460 H           1 MS8       0.0359
     25 H7          3.5761   45.2613    2.7164 H           1 MS8       0.0311
     26 H8          3.2043   43.5846    2.3092 H           1 MS8       0.0311
     27 H9          1.4461   44.1844    5.7642 H           1 MS8       0.0620
     28 H10         3.0042   42.9717    4.5867 H           1 MS8       0.0622
     29 H11         1.8864   46.3736    6.7187 H           1 MS8       0.0292
     30 H12         3.1199   46.7205    5.5035 H           1 MS8       0.0292
     31 H13         3.2998   44.7866    7.8402 H           1 MS8       0.0288
     32 H14         4.3421   46.1556    7.4742 H           1 MS8       0.0288
     33 H15         4.6390   43.3555    6.6516 H           1 MS8       0.0560
     34 H16         5.7679   44.6884    6.4419 H           1 MS8       0.0560
@<TRIPOS>BOND
     1     1     2  ar
     2     2     3  ar
     3     2     4   1
     4     4     5   1
     5     4     6   1
     6     6     7   1
     7     7     8   1
     8     7     9   1
     9     7    12   1
    10     8    14   1
    11     9    10  ar
    12     9    11  ar
    13    12    13   1
    14    13    14   1
    15    13    15   1
    16    14    18   1
    17    15    16   1
    18    16    17   1
    19    17    18   1
    20     4    19   1
    21     5    20   1
    22     5    21   1
    23     5    22   1
    24     6    23   1
    25     6    24   1
    26     8    25   1
    27     8    26   1
    28    13    27   1
    29    14    28   1
    30    15    29   1
    31    15    30   1
    32    16    31   1
    33    16    32   1
    34    17    33   1
    35    17    34   1
@<TRIPOS>SUBSTRUCTURE
     1  MS8      2

