@<TRIPOS>MOLECULE
3gbb_ligand_035
    34    35
SMALL
GAST_HUCK
****
This file was generated by PARSER (from files_GN.cpp)

@<TRIPOS>ATOM
      1 O           0.8432   40.1502    5.2213 O.co2       1 MS8      -0.5643
      2 C           1.3158   39.2731    4.2736 C.2         1 MS8       0.0844
      3 OXT         1.0225   37.9635    4.4340 O.co2       1 MS8      -0.5643
      4 CA          1.7314   39.7782    2.9511 C.3         1 MS8       0.0305
      5 N           0.5323   39.9145    2.0967 N.4         1 MS8       0.2327
      6 CB          2.6347   41.0615    2.9669 C.3         1 MS8       0.0363
      7 CAS         2.3990   42.2160    4.0039 C.3         1 MS8       0.1229
      8 CAJ         1.1350   43.0613    3.6469 C.3         1 MS8       0.0101
      9 CAN         2.4883   41.7053    5.4094 C.2         1 MS8       0.0769
     10 OAC         3.4833   40.8616    5.7676 O.co2       1 MS8      -0.5451
     11 OAE         1.7477   42.2275    6.4062 O.co2       1 MS8      -0.5451
     12 OAL         3.5161   43.1258    3.8987 O.3         1 MS8      -0.3631
     13 CAR         3.0523   44.4667    3.6893 C.3         1 MS8       0.0848
     14 CAQ         1.7197   44.2980    2.9488 C.3         1 MS8       0.0868
     15 CAH         2.8804   45.2547    5.0213 C.3         1 MS8      -0.0222
     16 CAP         2.0341   46.5345    4.8169 C.3         1 MS8      -0.0270
     17 CAG         0.6927   46.1867    4.1428 C.3         1 MS8       0.0482
     18 OAK         0.8815   45.4776    2.9096 O.3         1 MS8      -0.3740
     19 H1          2.3168   38.9830    2.4625 H           1 MS8       0.1024
     20 H2          0.7809   40.2408    1.1534 H           1 MS8       0.2010
     21 H3         -0.1315   40.5605    2.5286 H           1 MS8       0.2010
     22 H4          0.0808   38.9988    2.0126 H           1 MS8       0.2010
     23 H5          2.5866   41.4960    1.9655 H           1 MS8       0.0359
     24 H6          3.6675   40.7096    3.0836 H           1 MS8       0.0359
     25 H7          0.5788   43.3575    4.5329 H           1 MS8       0.0311
     26 H8          0.4279   42.5788    2.9804 H           1 MS8       0.0311
     27 H9          3.7752   44.9839    3.0634 H           1 MS8       0.0620
     28 H10         1.9365   44.0371    1.9045 H           1 MS8       0.0622
     29 H11         3.8528   45.5104    5.4365 H           1 MS8       0.0292
     30 H12         2.3736   44.6321    5.7630 H           1 MS8       0.0292
     31 H13         2.5750   47.2349    4.1805 H           1 MS8       0.0288
     32 H14         1.8473   47.0167    5.7783 H           1 MS8       0.0288
     33 H15         0.1610   47.1077    3.9147 H           1 MS8       0.0560
     34 H16         0.0731   45.6050    4.8240 H           1 MS8       0.0560
@<TRIPOS>BOND
     1     1     2  ar
     2     2     3  ar
     3     2     4   1
     4     4     5   1
     5     4     6   1
     6     6     7   1
     7     7     8   1
     8     7     9   1
     9     7    12   1
    10     8    14   1
    11     9    10  ar
    12     9    11  ar
    13    12    13   1
    14    13    14   1
    15    13    15   1
    16    14    18   1
    17    15    16   1
    18    16    17   1
    19    17    18   1
    20     4    19   1
    21     5    20   1
    22     5    21   1
    23     5    22   1
    24     6    23   1
    25     6    24   1
    26     8    25   1
    27     8    26   1
    28    13    27   1
    29    14    28   1
    30    15    29   1
    31    15    30   1
    32    16    31   1
    33    16    32   1
    34    17    33   1
    35    17    34   1
@<TRIPOS>SUBSTRUCTURE
     1  MS8      2

