@<TRIPOS>MOLECULE
3gbb_ligand_060
    34    35
SMALL
GAST_HUCK
****
This file was generated by PARSER (from files_GN.cpp)

@<TRIPOS>ATOM
      1 O          -0.8608   44.7978    3.9834 O.co2       1 MS8      -0.5643
      2 C           0.0316   43.9934    3.3794 C.2         1 MS8       0.0844
      3 OXT         0.6644   43.0388    4.1048 O.co2       1 MS8      -0.5643
      4 CA          0.2907   44.1296    1.9297 C.3         1 MS8       0.0305
      5 N          -0.8916   43.6517    1.1962 N.4         1 MS8       0.2327
      6 CB          0.6285   45.5916    1.4969 C.3         1 MS8       0.0363
      7 CAS         1.8311   46.3213    2.2151 C.3         1 MS8       0.1229
      8 CAJ         2.7570   47.1030    1.2393 C.3         1 MS8       0.0101
      9 CAN         1.3302   47.2631    3.2661 C.2         1 MS8       0.0769
     10 OAC         2.0444   47.4748    4.3897 O.co2       1 MS8      -0.5451
     11 OAE         0.4136   48.2054    2.9402 O.co2       1 MS8      -0.5451
     12 OAL         2.7470   45.3834    2.8141 O.3         1 MS8      -0.3631
     13 CAR         3.6666   44.9329    1.8064 C.3         1 MS8       0.0848
     14 CAQ         3.7347   46.0373    0.7185 C.3         1 MS8       0.0868
     15 CAH         5.0469   44.5955    2.4247 C.3         1 MS8      -0.0222
     16 CAP         6.1158   44.4064    1.3166 C.3         1 MS8      -0.0270
     17 CAG         6.0495   45.5198    0.2271 C.3         1 MS8       0.0482
     18 OAK         5.0701   46.5482    0.5016 O.3         1 MS8      -0.3740
     19 H1          1.1143   43.4714    1.6531 H           1 MS8       0.1024
     20 H2         -0.7089   43.6948    0.1894 H           1 MS8       0.2010
     21 H3         -1.7033   44.2371    1.4160 H           1 MS8       0.2010
     22 H4         -1.0953   42.6819    1.4562 H           1 MS8       0.2010
     23 H5         -0.2841   46.1884    1.5995 H           1 MS8       0.0359
     24 H6          0.8286   45.5449    0.4169 H           1 MS8       0.0359
     25 H7          3.3164   47.8873    1.7572 H           1 MS8       0.0311
     26 H8          2.2071   47.5713    0.4221 H           1 MS8       0.0311
     27 H9          3.2672   44.0149    1.3642 H           1 MS8       0.0620
     28 H10         3.3469   45.6599   -0.2308 H           1 MS8       0.0622
     29 H11         4.9718   43.6892    3.0314 H           1 MS8       0.0292
     30 H12         5.3584   45.4123    3.0773 H           1 MS8       0.0292
     31 H13         5.9620   43.4321    0.8511 H           1 MS8       0.0288
     32 H14         7.1063   44.3974    1.7805 H           1 MS8       0.0288
     33 H15         5.8442   45.0729   -0.7492 H           1 MS8       0.0560
     34 H16         7.0249   46.0127    0.1559 H           1 MS8       0.0560
@<TRIPOS>BOND
     1     1     2  ar
     2     2     3  ar
     3     2     4   1
     4     4     5   1
     5     4     6   1
     6     6     7   1
     7     7     8   1
     8     7     9   1
     9     7    12   1
    10     8    14   1
    11     9    10  ar
    12     9    11  ar
    13    12    13   1
    14    13    14   1
    15    13    15   1
    16    14    18   1
    17    15    16   1
    18    16    17   1
    19    17    18   1
    20     4    19   1
    21     5    20   1
    22     5    21   1
    23     5    22   1
    24     6    23   1
    25     6    24   1
    26     8    25   1
    27     8    26   1
    28    13    27   1
    29    14    28   1
    30    15    29   1
    31    15    30   1
    32    16    31   1
    33    16    32   1
    34    17    33   1
    35    17    34   1
@<TRIPOS>SUBSTRUCTURE
     1  MS8      2

