@<TRIPOS>MOLECULE
3gbb_ligand_058
    34    35
SMALL
GAST_HUCK
****
This file was generated by PARSER (from files_GN.cpp)

@<TRIPOS>ATOM
      1 O           6.0237   45.6506    7.1201 O.co2       1 MS8      -0.5643
      2 C           4.7887   46.1762    6.9365 C.2         1 MS8       0.0844
      3 OXT         4.6536   47.5121    7.0879 O.co2       1 MS8      -0.5643
      4 CA          3.6296   45.2668    6.7711 C.3         1 MS8       0.0305
      5 N           2.4043   46.0532    6.5426 N.4         1 MS8       0.2327
      6 CB          3.8895   44.1077    5.7357 C.3         1 MS8       0.0363
      7 CAS         2.9023   43.8378    4.5482 C.3         1 MS8       0.1229
      8 CAJ         1.4276   43.5824    4.9949 C.3         1 MS8       0.0101
      9 CAN         3.0255   44.8820    3.4952 C.2         1 MS8       0.0769
     10 OAC         2.2984   46.0216    3.5291 O.co2       1 MS8      -0.5451
     11 OAE         4.0485   44.8362    2.6073 O.co2       1 MS8      -0.5451
     12 OAL         3.3196   42.6080    3.9044 O.3         1 MS8      -0.3631
     13 CAR         2.3058   41.6044    4.0475 C.3         1 MS8       0.0848
     14 CAQ         0.9790   42.3783    4.1628 C.3         1 MS8       0.0868
     15 CAH         2.2932   40.5900    2.8746 C.3         1 MS8      -0.0222
     16 CAP         1.7100   41.2194    1.5871 C.3         1 MS8      -0.0270
     17 CAG         0.3306   41.8488    1.8690 C.3         1 MS8       0.0482
     18 OAK         0.4484   42.8469    2.9009 O.3         1 MS8      -0.3740
     19 H1          3.4935   44.8069    7.7548 H           1 MS8       0.1024
     20 H2          1.5894   45.4410    6.6019 H           1 MS8       0.2010
     21 H3          2.4351   46.4942    5.6208 H           1 MS8       0.2010
     22 H4          2.3191   46.7637    7.2711 H           1 MS8       0.2010
     23 H5          3.9213   43.1799    6.3152 H           1 MS8       0.0359
     24 H6          4.8901   44.2093    5.3017 H           1 MS8       0.0359
     25 H7          0.7645   44.4398    4.8431 H           1 MS8       0.0311
     26 H8          1.3823   43.3063    6.0512 H           1 MS8       0.0311
     27 H9          2.5038   41.0596    4.9774 H           1 MS8       0.0620
     28 H10         0.2355   41.7810    4.6917 H           1 MS8       0.0622
     29 H11         1.6835   39.7255    3.1558 H           1 MS8       0.0292
     30 H12         3.3095   40.2342    2.6864 H           1 MS8       0.0292
     31 H13         1.6249   40.4626    0.8047 H           1 MS8       0.0288
     32 H14         2.3779   42.0113    1.2421 H           1 MS8       0.0288
     33 H15        -0.3901   41.0745    2.1438 H           1 MS8       0.0560
     34 H16        -0.0312   42.3351    0.9599 H           1 MS8       0.0560
@<TRIPOS>BOND
     1     1     2  ar
     2     2     3  ar
     3     2     4   1
     4     4     5   1
     5     4     6   1
     6     6     7   1
     7     7     8   1
     8     7     9   1
     9     7    12   1
    10     8    14   1
    11     9    10  ar
    12     9    11  ar
    13    12    13   1
    14    13    14   1
    15    13    15   1
    16    14    18   1
    17    15    16   1
    18    16    17   1
    19    17    18   1
    20     4    19   1
    21     5    20   1
    22     5    21   1
    23     5    22   1
    24     6    23   1
    25     6    24   1
    26     8    25   1
    27     8    26   1
    28    13    27   1
    29    14    28   1
    30    15    29   1
    31    15    30   1
    32    16    31   1
    33    16    32   1
    34    17    33   1
    35    17    34   1
@<TRIPOS>SUBSTRUCTURE
     1  MS8      2

