@<TRIPOS>MOLECULE
3gbb_ligand_051
    34    35
SMALL
GAST_HUCK
****
This file was generated by PARSER (from files_GN.cpp)

@<TRIPOS>ATOM
      1 O           1.8123   47.6054    5.0601 O.co2       1 MS8      -0.5643
      2 C           0.9497   46.6688    4.6007 C.2         1 MS8       0.0844
      3 OXT         0.2444   45.9668    5.5384 O.co2       1 MS8      -0.5643
      4 CA          0.8797   46.2868    3.1740 C.3         1 MS8       0.0305
      5 N           1.9323   46.9558    2.3971 N.4         1 MS8       0.2327
      6 CB          0.8756   44.7448    2.9356 C.3         1 MS8       0.0363
      7 CAS         2.0223   43.8736    3.5883 C.3         1 MS8       0.1229
      8 CAJ         1.4674   42.6252    4.3730 C.3         1 MS8       0.0101
      9 CAN         3.0534   43.5011    2.5827 C.2         1 MS8       0.0769
     10 OAC         3.4626   42.2284    2.3735 O.co2       1 MS8      -0.5451
     11 OAE         3.7150   44.4622    1.8841 O.co2       1 MS8      -0.5451
     12 OAL         2.7633   44.6244    4.5798 O.3         1 MS8      -0.3631
     13 CAR         2.6118   44.0274    5.8646 C.3         1 MS8       0.0848
     14 CAQ         2.3748   42.5309    5.6014 C.3         1 MS8       0.0868
     15 CAH         3.8280   44.3137    6.7709 C.3         1 MS8      -0.0222
     16 CAP         5.0452   43.4480    6.3736 C.3         1 MS8      -0.0270
     17 CAG         4.6353   41.9594    6.2365 C.3         1 MS8       0.0482
     18 OAK         3.5860   41.8185    5.2675 O.3         1 MS8      -0.3740
     19 H1         -0.0665   46.6755    2.7995 H           1 MS8       0.1024
     20 H2          1.8343   46.7224    1.4000 H           1 MS8       0.2010
     21 H3          2.8481   46.6504    2.7313 H           1 MS8       0.2010
     22 H4          1.8596   47.9801    2.5079 H           1 MS8       0.2010
     23 H5          0.8673   44.5748    1.8451 H           1 MS8       0.0359
     24 H6         -0.1061   44.3964    3.2691 H           1 MS8       0.0359
     25 H7          1.4534   41.7007    3.7878 H           1 MS8       0.0311
     26 H8          0.4419   42.8016    4.7299 H           1 MS8       0.0311
     27 H9          1.7103   44.4775    6.3509 H           1 MS8       0.0620
     28 H10         1.8650   42.0354    6.4382 H           1 MS8       0.0622
     29 H11         3.5684   44.1055    7.8112 H           1 MS8       0.0292
     30 H12         4.0957   45.3723    6.7082 H           1 MS8       0.0292
     31 H13         5.8317   43.5533    7.1278 H           1 MS8       0.0288
     32 H14         5.4287   43.8038    5.4060 H           1 MS8       0.0288
     33 H15         4.3245   41.5513    7.2045 H           1 MS8       0.0560
     34 H16         5.4931   41.3826    5.8870 H           1 MS8       0.0560
@<TRIPOS>BOND
     1     1     2  ar
     2     2     3  ar
     3     2     4   1
     4     4     5   1
     5     4     6   1
     6     6     7   1
     7     7     8   1
     8     7     9   1
     9     7    12   1
    10     8    14   1
    11     9    10  ar
    12     9    11  ar
    13    12    13   1
    14    13    14   1
    15    13    15   1
    16    14    18   1
    17    15    16   1
    18    16    17   1
    19    17    18   1
    20     4    19   1
    21     5    20   1
    22     5    21   1
    23     5    22   1
    24     6    23   1
    25     6    24   1
    26     8    25   1
    27     8    26   1
    28    13    27   1
    29    14    28   1
    30    15    29   1
    31    15    30   1
    32    16    31   1
    33    16    32   1
    34    17    33   1
    35    17    34   1
@<TRIPOS>SUBSTRUCTURE
     1  MS8      2

