@<TRIPOS>MOLECULE
3gbb_ligand_019
    34    35
SMALL
GAST_HUCK
****
This file was generated by PARSER (from files_GN.cpp)

@<TRIPOS>ATOM
      1 O           5.7811   44.8737    6.7780 O.co2       1 MS8      -0.5643
      2 C           4.6247   44.1719    6.8045 C.2         1 MS8       0.0844
      3 OXT         4.7003   42.8371    6.5843 O.co2       1 MS8      -0.5643
      4 CA          3.3348   44.8873    6.6441 C.3         1 MS8       0.0305
      5 N           3.4548   46.1884    7.3270 N.4         1 MS8       0.2327
      6 CB          2.9019   45.0380    5.1406 C.3         1 MS8       0.0363
      7 CAS         1.7695   44.0891    4.5987 C.3         1 MS8       0.1229
      8 CAJ         1.8638   42.6074    5.0762 C.3         1 MS8       0.0101
      9 CAN         0.4271   44.6680    4.8963 C.2         1 MS8       0.0769
     10 OAC        -0.4764   44.8922    3.9098 O.co2       1 MS8      -0.5451
     11 OAE         0.0573   44.9424    6.1670 O.co2       1 MS8      -0.5451
     12 OAL         1.9434   44.0389    3.1597 O.3         1 MS8      -0.3631
     13 CAR         2.3680   42.7231    2.7540 C.3         1 MS8       0.0848
     14 CAQ         2.8137   41.9902    4.0395 C.3         1 MS8       0.0868
     15 CAH         1.1942   42.0048    2.0256 C.3         1 MS8      -0.0222
     16 CAP         1.3650   40.4669    1.9854 C.3         1 MS8      -0.0270
     17 CAG         1.7084   39.8989    3.3847 C.3         1 MS8       0.0482
     18 OAK         2.8586   40.5463    3.9563 O.3         1 MS8      -0.3740
     19 H1          2.5676   44.3487    7.2040 H           1 MS8       0.1024
     20 H2          2.5317   46.6065    7.4589 H           1 MS8       0.2010
     21 H3          4.0553   46.8166    6.7842 H           1 MS8       0.2010
     22 H4          3.8704   46.0419    8.2504 H           1 MS8       0.2010
     23 H5          3.7825   44.8997    4.5040 H           1 MS8       0.0359
     24 H6          2.5840   46.0717    4.9642 H           1 MS8       0.0359
     25 H7          0.8806   42.1243    5.0310 H           1 MS8       0.0311
     26 H8          2.2454   42.4849    6.0891 H           1 MS8       0.0311
     27 H9          3.2170   42.8059    2.0694 H           1 MS8       0.0620
     28 H10         3.8353   42.3047    4.2823 H           1 MS8       0.0622
     29 H11         1.1186   42.3901    1.0042 H           1 MS8       0.0292
     30 H12         0.2562   42.2367    2.5363 H           1 MS8       0.0292
     31 H13         2.1649   40.2099    1.2843 H           1 MS8       0.0288
     32 H14         0.4340   40.0076    1.6334 H           1 MS8       0.0288
     33 H15         1.9355   38.8342    3.2927 H           1 MS8       0.0560
     34 H16         0.8574   40.0001    4.0599 H           1 MS8       0.0560
@<TRIPOS>BOND
     1     1     2  ar
     2     2     3  ar
     3     2     4   1
     4     4     5   1
     5     4     6   1
     6     6     7   1
     7     7     8   1
     8     7     9   1
     9     7    12   1
    10     8    14   1
    11     9    10  ar
    12     9    11  ar
    13    12    13   1
    14    13    14   1
    15    13    15   1
    16    14    18   1
    17    15    16   1
    18    16    17   1
    19    17    18   1
    20     4    19   1
    21     5    20   1
    22     5    21   1
    23     5    22   1
    24     6    23   1
    25     6    24   1
    26     8    25   1
    27     8    26   1
    28    13    27   1
    29    14    28   1
    30    15    29   1
    31    15    30   1
    32    16    31   1
    33    16    32   1
    34    17    33   1
    35    17    34   1
@<TRIPOS>SUBSTRUCTURE
     1  MS8      2

