@<TRIPOS>MOLECULE
3gbb_ligand_054
    34    35
SMALL
GAST_HUCK
****
This file was generated by PARSER (from files_GN.cpp)

@<TRIPOS>ATOM
      1 O           1.6260   43.2206    0.7076 O.co2       1 MS8      -0.5643
      2 C           0.8659   42.6934    1.6960 C.2         1 MS8       0.0844
      3 OXT        -0.4111   43.1159    1.8110 O.co2       1 MS8      -0.5643
      4 CA          1.3737   41.5945    2.5439 C.3         1 MS8       0.0305
      5 N           1.4885   40.4010    1.6932 N.4         1 MS8       0.2327
      6 CB          2.7337   41.8754    3.2474 C.3         1 MS8       0.0363
      7 CAS         2.8525   43.1198    4.1917 C.3         1 MS8       0.1229
      8 CAJ         1.8240   43.1445    5.3635 C.3         1 MS8       0.0101
      9 CAN         4.2415   43.1594    4.7153 C.2         1 MS8       0.0769
     10 OAC         5.1754   43.9942    4.1896 O.co2       1 MS8      -0.5451
     11 OAE         4.6555   42.2532    5.6404 O.co2       1 MS8      -0.5451
     12 OAL         2.6261   44.3073    3.3948 O.3         1 MS8      -0.3631
     13 CAR         1.6004   45.1096    3.9898 C.3         1 MS8       0.0848
     14 CAQ         0.7829   44.1675    4.8970 C.3         1 MS8       0.0868
     15 CAH         2.2330   46.3078    4.7500 C.3         1 MS8      -0.0222
     16 CAP         1.2148   46.9692    5.7051 C.3         1 MS8      -0.0270
     17 CAG         0.6367   45.9005    6.6563 C.3         1 MS8       0.0482
     18 OAK         0.0106   44.8208    5.9341 O.3         1 MS8      -0.3740
     19 H1          0.6276   41.3695    3.3088 H           1 MS8       0.1024
     20 H2          1.7078   39.5880    2.2714 H           1 MS8       0.2010
     21 H3          2.2292   40.5346    1.0039 H           1 MS8       0.2010
     22 H4          0.6064   40.2370    1.1970 H           1 MS8       0.2010
     23 H5          3.4937   41.9824    2.4701 H           1 MS8       0.0359
     24 H6          2.9883   40.9828    3.8219 H           1 MS8       0.0359
     25 H7          2.2721   43.4972    6.2974 H           1 MS8       0.0311
     26 H8          1.3705   42.1690    5.5545 H           1 MS8       0.0311
     27 H9          0.9575   45.5071    3.2017 H           1 MS8       0.0620
     28 H10         0.0590   43.6404    4.2684 H           1 MS8       0.0622
     29 H11         2.5753   47.0523    4.0263 H           1 MS8       0.0292
     30 H12         3.0981   45.9718    5.3311 H           1 MS8       0.0292
     31 H13         0.4128   47.4203    5.1207 H           1 MS8       0.0288
     32 H14         1.7021   47.7509    6.2918 H           1 MS8       0.0288
     33 H15        -0.1230   46.3569    7.2972 H           1 MS8       0.0560
     34 H16         1.4317   45.5073    7.2984 H           1 MS8       0.0560
@<TRIPOS>BOND
     1     1     2  ar
     2     2     3  ar
     3     2     4   1
     4     4     5   1
     5     4     6   1
     6     6     7   1
     7     7     8   1
     8     7     9   1
     9     7    12   1
    10     8    14   1
    11     9    10  ar
    12     9    11  ar
    13    12    13   1
    14    13    14   1
    15    13    15   1
    16    14    18   1
    17    15    16   1
    18    16    17   1
    19    17    18   1
    20     4    19   1
    21     5    20   1
    22     5    21   1
    23     5    22   1
    24     6    23   1
    25     6    24   1
    26     8    25   1
    27     8    26   1
    28    13    27   1
    29    14    28   1
    30    15    29   1
    31    15    30   1
    32    16    31   1
    33    16    32   1
    34    17    33   1
    35    17    34   1
@<TRIPOS>SUBSTRUCTURE
     1  MS8      2

