@<TRIPOS>MOLECULE
3gbb_ligand_068
    34    35
SMALL
GAST_HUCK
****
This file was generated by PARSER (from files_GN.cpp)

@<TRIPOS>ATOM
      1 O           4.5051   46.9026   -1.6461 O.co2       1 MS8      -0.5643
      2 C           4.5988   46.6088   -0.3276 C.2         1 MS8       0.0844
      3 OXT         5.5659   45.7541    0.0781 O.co2       1 MS8      -0.5643
      4 CA          3.5794   47.1062    0.6211 C.3         1 MS8       0.0305
      5 N           3.5938   48.5703    0.5748 N.4         1 MS8       0.2327
      6 CB          2.1452   46.5480    0.3473 C.3         1 MS8       0.0363
      7 CAS         1.3289   46.0638    1.6003 C.3         1 MS8       0.1229
      8 CAJ         1.9225   44.8054    2.2923 C.3         1 MS8       0.0101
      9 CAN         1.0984   47.1719    2.5667 C.2         1 MS8       0.0769
     10 OAC         0.1412   48.1059    2.3620 O.co2       1 MS8      -0.5451
     11 OAE         1.9452   47.3808    3.5987 O.co2       1 MS8      -0.5451
     12 OAL         0.0420   45.5998    1.1495 O.3         1 MS8      -0.3631
     13 CAR         0.1484   44.2187    0.7645 C.3         1 MS8       0.0848
     14 CAQ         1.4115   43.6348    1.4474 C.3         1 MS8       0.0868
     15 CAH        -1.1220   43.4354    1.1590 C.3         1 MS8      -0.0222
     16 CAP        -0.8995   41.9118    0.9850 C.3         1 MS8      -0.0270
     17 CAG         0.4627   41.4317    1.5809 C.3         1 MS8       0.0482
     18 OAK         1.1729   42.4744    2.2718 O.3         1 MS8      -0.3740
     19 H1          3.8986   46.8237    1.6217 H           1 MS8       0.1024
     20 H2          2.9258   48.9421    1.2488 H           1 MS8       0.2010
     21 H3          3.3382   48.8751   -0.3663 H           1 MS8       0.2010
     22 H4          4.5271   48.9134    0.7888 H           1 MS8       0.2010
     23 H5          2.2122   45.7116   -0.3509 H           1 MS8       0.0359
     24 H6          1.5640   47.3015   -0.1851 H           1 MS8       0.0359
     25 H7          1.5375   44.7120    3.3167 H           1 MS8       0.0311
     26 H8          3.0143   44.8064    2.3394 H           1 MS8       0.0311
     27 H9          0.2656   44.1724   -0.3220 H           1 MS8       0.0620
     28 H10         2.1618   43.3885    0.6945 H           1 MS8       0.0622
     29 H11        -1.9579   43.7639    0.5373 H           1 MS8       0.0292
     30 H12        -1.3666   43.6488    2.2013 H           1 MS8       0.0292
     31 H13        -0.9305   41.6825   -0.0818 H           1 MS8       0.0288
     32 H14        -1.7220   41.3731    1.4588 H           1 MS8       0.0288
     33 H15         1.1010   41.0266    0.7878 H           1 MS8       0.0560
     34 H16         0.2878   40.6246    2.2937 H           1 MS8       0.0560
@<TRIPOS>BOND
     1     1     2  ar
     2     2     3  ar
     3     2     4   1
     4     4     5   1
     5     4     6   1
     6     6     7   1
     7     7     8   1
     8     7     9   1
     9     7    12   1
    10     8    14   1
    11     9    10  ar
    12     9    11  ar
    13    12    13   1
    14    13    14   1
    15    13    15   1
    16    14    18   1
    17    15    16   1
    18    16    17   1
    19    17    18   1
    20     4    19   1
    21     5    20   1
    22     5    21   1
    23     5    22   1
    24     6    23   1
    25     6    24   1
    26     8    25   1
    27     8    26   1
    28    13    27   1
    29    14    28   1
    30    15    29   1
    31    15    30   1
    32    16    31   1
    33    16    32   1
    34    17    33   1
    35    17    34   1
@<TRIPOS>SUBSTRUCTURE
     1  MS8      2

