@<TRIPOS>MOLECULE
3gbb_ligand_033
    34    35
SMALL
GAST_HUCK
****
This file was generated by PARSER (from files_GN.cpp)

@<TRIPOS>ATOM
      1 O           3.5720   40.7722    5.0082 O.co2       1 MS8      -0.5643
      2 C           3.3842   40.9580    3.6829 C.2         1 MS8       0.0844
      3 OXT         4.2034   41.8249    3.0455 O.co2       1 MS8      -0.5643
      4 CA          2.3250   40.2574    2.9308 C.3         1 MS8       0.0305
      5 N           1.6704   39.2143    3.7450 N.4         1 MS8       0.2327
      6 CB          1.2621   41.1942    2.2562 C.3         1 MS8       0.0363
      7 CAS         0.9482   42.6347    2.8261 C.3         1 MS8       0.1229
      8 CAJ        -0.3112   43.2641    2.1424 C.3         1 MS8       0.0101
      9 CAN         0.8141   42.7247    4.3103 C.2         1 MS8       0.0769
     10 OAC         0.7564   41.6415    5.1142 O.co2       1 MS8      -0.5451
     11 OAE         0.6855   43.9240    4.9251 O.co2       1 MS8      -0.5451
     12 OAL         2.0427   43.5045    2.4625 O.3         1 MS8      -0.3631
     13 CAR         1.6190   44.3742    1.3989 C.3         1 MS8       0.0848
     14 CAQ         0.1425   44.6660    1.7167 C.3         1 MS8       0.0868
     15 CAH         2.4653   45.6703    1.3126 C.3         1 MS8      -0.0222
     16 CAP         2.2015   46.6040    2.5152 C.3         1 MS8      -0.0270
     17 CAG         0.6845   46.8299    2.7026 C.3         1 MS8       0.0482
     18 OAK        -0.0305   45.5871    2.8194 O.3         1 MS8      -0.3740
     19 H1          2.8369   39.6938    2.1392 H           1 MS8       0.1024
     20 H2          1.0761   38.6400    3.1435 H           1 MS8       0.2010
     21 H3          1.0969   39.6448    4.4692 H           1 MS8       0.2010
     22 H4          2.3739   38.6146    4.1810 H           1 MS8       0.2010
     23 H5          0.3248   40.6385    2.1858 H           1 MS8       0.0359
     24 H6          1.5890   41.3363    1.2204 H           1 MS8       0.0359
     25 H7         -1.1862   43.3330    2.7915 H           1 MS8       0.0311
     26 H8         -0.6115   42.7045    1.2500 H           1 MS8       0.0311
     27 H9          1.6963   43.8434    0.4441 H           1 MS8       0.0620
     28 H10        -0.4073   45.0177    0.8381 H           1 MS8       0.0622
     29 H11         2.2147   46.2010    0.3886 H           1 MS8       0.0292
     30 H12         3.5273   45.4131    1.2714 H           1 MS8       0.0292
     31 H13         2.6906   47.5669    2.3487 H           1 MS8       0.0288
     32 H14         2.6164   46.1554    3.4220 H           1 MS8       0.0288
     33 H15         0.2859   47.4069    1.8669 H           1 MS8       0.0560
     34 H16         0.5199   47.4045    3.6162 H           1 MS8       0.0560
@<TRIPOS>BOND
     1     1     2  ar
     2     2     3  ar
     3     2     4   1
     4     4     5   1
     5     4     6   1
     6     6     7   1
     7     7     8   1
     8     7     9   1
     9     7    12   1
    10     8    14   1
    11     9    10  ar
    12     9    11  ar
    13    12    13   1
    14    13    14   1
    15    13    15   1
    16    14    18   1
    17    15    16   1
    18    16    17   1
    19    17    18   1
    20     4    19   1
    21     5    20   1
    22     5    21   1
    23     5    22   1
    24     6    23   1
    25     6    24   1
    26     8    25   1
    27     8    26   1
    28    13    27   1
    29    14    28   1
    30    15    29   1
    31    15    30   1
    32    16    31   1
    33    16    32   1
    34    17    33   1
    35    17    34   1
@<TRIPOS>SUBSTRUCTURE
     1  MS8      2

