@<TRIPOS>MOLECULE
3gbb_ligand_064
    34    35
SMALL
GAST_HUCK
****
This file was generated by PARSER (from files_GN.cpp)

@<TRIPOS>ATOM
      1 O           3.0642   46.8806    6.0789 O.co2       1 MS8      -0.5643
      2 C           2.7051   45.5952    5.8561 C.2         1 MS8       0.0844
      3 OXT         3.4984   44.5913    6.2991 O.co2       1 MS8      -0.5643
      4 CA          1.4454   45.3054    5.1287 C.3         1 MS8       0.0305
      5 N           0.3443   45.4529    6.1033 N.4         1 MS8       0.2327
      6 CB          1.2494   46.2251    3.8720 C.3         1 MS8       0.0363
      7 CAS         1.2438   45.5056    2.4611 C.3         1 MS8       0.1229
      8 CAJ         2.4348   44.5316    2.2232 C.3         1 MS8       0.0101
      9 CAN        -0.0603   44.8349    2.1901 C.2         1 MS8       0.0769
     10 OAC        -0.2202   44.1140    1.0568 O.co2       1 MS8      -0.5451
     11 OAE        -1.1785   45.0624    2.9407 O.co2       1 MS8      -0.5451
     12 OAL         1.4357   46.4869    1.4186 O.3         1 MS8      -0.3631
     13 CAR         2.8523   46.7118    1.2494 C.3         1 MS8       0.0848
     14 CAQ         3.5837   45.4531    1.8015 C.3         1 MS8       0.0868
     15 CAH         3.2295   47.0225   -0.2218 C.3         1 MS8      -0.0222
     16 CAP         4.7582   46.9146   -0.4736 C.3         1 MS8      -0.0270
     17 CAG         5.4088   45.6706    0.2051 C.3         1 MS8       0.0482
     18 OAK         4.4528   44.8014    0.8440 O.3         1 MS8      -0.3740
     19 H1          1.4356   44.2485    4.8313 H           1 MS8       0.1024
     20 H2         -0.5274   45.1074    5.6830 H           1 MS8       0.2010
     21 H3          0.2334   46.4399    6.3685 H           1 MS8       0.2010
     22 H4          0.5465   44.8956    6.9358 H           1 MS8       0.2010
     23 H5          2.0149   47.0056    3.8697 H           1 MS8       0.0359
     24 H6          0.3014   46.7716    3.9680 H           1 MS8       0.0359
     25 H7          2.2165   43.8400    1.4042 H           1 MS8       0.0311
     26 H8          2.6961   43.9451    3.1083 H           1 MS8       0.0311
     27 H9          3.1285   47.5866    1.8478 H           1 MS8       0.0620
     28 H10         4.1615   45.7084    2.6936 H           1 MS8       0.0622
     29 H11         2.9019   48.0307   -0.4839 H           1 MS8       0.0292
     30 H12         2.7035   46.3279   -0.8765 H           1 MS8       0.0292
     31 H13         5.2423   47.8166   -0.1002 H           1 MS8       0.0288
     32 H14         4.9388   46.8711   -1.5518 H           1 MS8       0.0288
     33 H15         6.1568   45.9853    0.9402 H           1 MS8       0.0560
     34 H16         5.9347   45.0747   -0.5421 H           1 MS8       0.0560
@<TRIPOS>BOND
     1     1     2  ar
     2     2     3  ar
     3     2     4   1
     4     4     5   1
     5     4     6   1
     6     6     7   1
     7     7     8   1
     8     7     9   1
     9     7    12   1
    10     8    14   1
    11     9    10  ar
    12     9    11  ar
    13    12    13   1
    14    13    14   1
    15    13    15   1
    16    14    18   1
    17    15    16   1
    18    16    17   1
    19    17    18   1
    20     4    19   1
    21     5    20   1
    22     5    21   1
    23     5    22   1
    24     6    23   1
    25     6    24   1
    26     8    25   1
    27     8    26   1
    28    13    27   1
    29    14    28   1
    30    15    29   1
    31    15    30   1
    32    16    31   1
    33    16    32   1
    34    17    33   1
    35    17    34   1
@<TRIPOS>SUBSTRUCTURE
     1  MS8      2

