@<TRIPOS>MOLECULE
3gbb_ligand_017
    34    35
SMALL
GAST_HUCK
****
This file was generated by PARSER (from files_GN.cpp)

@<TRIPOS>ATOM
      1 O           7.1784   44.3670    1.8093 O.co2       1 MS8      -0.5643
      2 C           5.8615   44.6531    1.6554 C.2         1 MS8       0.0844
      3 OXT         5.5085   45.2722    0.5040 O.co2       1 MS8      -0.5643
      4 CA          4.8157   43.9432    2.4457 C.3         1 MS8       0.0305
      5 N           5.4029   43.3426    3.6498 N.4         1 MS8       0.2327
      6 CB          3.6024   44.8600    2.8021 C.3         1 MS8       0.0363
      7 CAS         2.3474   44.2018    3.5183 C.3         1 MS8       0.1229
      8 CAJ         1.9390   42.7883    2.9977 C.3         1 MS8       0.0101
      9 CAN         2.4364   44.2139    5.0090 C.2         1 MS8       0.0769
     10 OAC         3.3492   44.9657    5.6873 O.co2       1 MS8      -0.5451
     11 OAE         1.4396   43.6848    5.7602 O.co2       1 MS8      -0.5451
     12 OAL         1.1706   44.9719    3.1945 O.3         1 MS8      -0.3631
     13 CAR         0.7059   44.5496    1.9038 C.3         1 MS8       0.0848
     14 CAQ         1.2278   43.1010    1.6722 C.3         1 MS8       0.0868
     15 CAH        -0.8310   44.6279    1.7704 C.3         1 MS8      -0.0222
     16 CAP        -1.2516   43.9619    0.4371 C.3         1 MS8      -0.0270
     17 CAG        -0.6709   42.5194    0.3080 C.3         1 MS8       0.0482
     18 OAK         0.1997   42.1348    1.3934 O.3         1 MS8      -0.3740
     19 H1          4.4655   43.1251    1.8085 H           1 MS8       0.1024
     20 H2          4.6602   42.9556    4.2419 H           1 MS8       0.2010
     21 H3          5.9297   44.0487    4.1725 H           1 MS8       0.2010
     22 H4          6.0177   42.5793    3.3508 H           1 MS8       0.2010
     23 H5          3.2774   45.3070    1.8583 H           1 MS8       0.0359
     24 H6          3.9605   45.6963    3.4035 H           1 MS8       0.0359
     25 H7          1.2213   42.3008    3.6769 H           1 MS8       0.0311
     26 H8          2.7857   42.1120    2.8702 H           1 MS8       0.0311
     27 H9          1.1276   45.2145    1.1365 H           1 MS8       0.0620
     28 H10         1.9634   43.0935    0.8577 H           1 MS8       0.0622
     29 H11        -1.1417   45.6724    1.7975 H           1 MS8       0.0292
     30 H12        -1.3090   44.1153    2.6102 H           1 MS8       0.0292
     31 H13        -0.8775   44.5722   -0.3883 H           1 MS8       0.0288
     32 H14        -2.3439   43.9438    0.3560 H           1 MS8       0.0288
     33 H15        -0.1287   42.4210   -0.6340 H           1 MS8       0.0560
     34 H16        -1.4938   41.7992    0.2886 H           1 MS8       0.0560
@<TRIPOS>BOND
     1     1     2  ar
     2     2     3  ar
     3     2     4   1
     4     4     5   1
     5     4     6   1
     6     6     7   1
     7     7     8   1
     8     7     9   1
     9     7    12   1
    10     8    14   1
    11     9    10  ar
    12     9    11  ar
    13    12    13   1
    14    13    14   1
    15    13    15   1
    16    14    18   1
    17    15    16   1
    18    16    17   1
    19    17    18   1
    20     4    19   1
    21     5    20   1
    22     5    21   1
    23     5    22   1
    24     6    23   1
    25     6    24   1
    26     8    25   1
    27     8    26   1
    28    13    27   1
    29    14    28   1
    30    15    29   1
    31    15    30   1
    32    16    31   1
    33    16    32   1
    34    17    33   1
    35    17    34   1
@<TRIPOS>SUBSTRUCTURE
     1  MS8      2

