@<TRIPOS>MOLECULE
3gbb_ligand_038
    34    35
SMALL
GAST_HUCK
****
This file was generated by PARSER (from files_GN.cpp)

@<TRIPOS>ATOM
      1 O           2.4315   42.9511    6.7861 O.co2       1 MS8      -0.5643
      2 C           3.7680   43.0410    6.5370 C.2         1 MS8       0.0844
      3 OXT         4.4285   44.1069    7.0497 O.co2       1 MS8      -0.5643
      4 CA          4.4096   42.1485    5.5541 C.3         1 MS8       0.0305
      5 N           5.1782   41.1453    6.3062 N.4         1 MS8       0.2327
      6 CB          3.4579   41.4255    4.5466 C.3         1 MS8       0.0363
      7 CAS         2.2547   42.2410    3.9563 C.3         1 MS8       0.1229
      8 CAJ         1.6809   41.6093    2.6458 C.3         1 MS8       0.0101
      9 CAN         1.1575   42.3515    4.9551 C.2         1 MS8       0.0769
     10 OAC         0.7120   41.2457    5.5861 O.co2       1 MS8      -0.5451
     11 OAE         0.8143   43.5434    5.4806 O.co2       1 MS8      -0.5451
     12 OAL         2.6788   43.5776    3.5944 O.3         1 MS8      -0.3631
     13 CAR         2.3772   43.8280    2.2149 C.3         1 MS8       0.0848
     14 CAQ         1.2526   42.8328    1.8272 C.3         1 MS8       0.0868
     15 CAH         1.9772   45.3093    1.9610 C.3         1 MS8      -0.0222
     16 CAP         0.5413   45.6245    2.4370 C.3         1 MS8      -0.0270
     17 CAG        -0.4366   44.5744    1.8515 C.3         1 MS8       0.0482
     18 OAK        -0.0664   43.2508    2.2665 O.3         1 MS8      -0.3740
     19 H1          5.1211   42.7478    4.9648 H           1 MS8       0.1024
     20 H2          5.6758   40.5506    5.6463 H           1 MS8       0.2010
     21 H3          4.5421   40.5789    6.8675 H           1 MS8       0.2010
     22 H4          5.8589   41.6134    6.9126 H           1 MS8       0.2010
     23 H5          3.0737   40.5143    5.0159 H           1 MS8       0.0359
     24 H6          4.0896   41.1119    3.7083 H           1 MS8       0.0359
     25 H7          0.8535   40.9082    2.8011 H           1 MS8       0.0311
     26 H8          2.4634   41.0691    2.0887 H           1 MS8       0.0311
     27 H9          3.2746   43.5989    1.6415 H           1 MS8       0.0620
     28 H10         1.2429   42.6213    0.7565 H           1 MS8       0.0622
     29 H11         2.0516   45.5142    0.8917 H           1 MS8       0.0292
     30 H12         2.6870   45.9651    2.4770 H           1 MS8       0.0292
     31 H13         0.2497   46.6243    2.0998 H           1 MS8       0.0288
     32 H14         0.4952   45.5895    3.5219 H           1 MS8       0.0288
     33 H15        -0.4651   44.6394    0.7570 H           1 MS8       0.0560
     34 H16        -1.4428   44.7796    2.2242 H           1 MS8       0.0560
@<TRIPOS>BOND
     1     1     2  ar
     2     2     3  ar
     3     2     4   1
     4     4     5   1
     5     4     6   1
     6     6     7   1
     7     7     8   1
     8     7     9   1
     9     7    12   1
    10     8    14   1
    11     9    10  ar
    12     9    11  ar
    13    12    13   1
    14    13    14   1
    15    13    15   1
    16    14    18   1
    17    15    16   1
    18    16    17   1
    19    17    18   1
    20     4    19   1
    21     5    20   1
    22     5    21   1
    23     5    22   1
    24     6    23   1
    25     6    24   1
    26     8    25   1
    27     8    26   1
    28    13    27   1
    29    14    28   1
    30    15    29   1
    31    15    30   1
    32    16    31   1
    33    16    32   1
    34    17    33   1
    35    17    34   1
@<TRIPOS>SUBSTRUCTURE
     1  MS8      2

