@<TRIPOS>MOLECULE
3gbb_ligand_025
    34    35
SMALL
GAST_HUCK
****
This file was generated by PARSER (from files_GN.cpp)

@<TRIPOS>ATOM
      1 O           1.8739   47.7524    4.7117 O.co2       1 MS8      -0.5643
      2 C           1.0563   47.3697    3.7077 C.2         1 MS8       0.0844
      3 OXT         0.3286   48.3352    3.1024 O.co2       1 MS8      -0.5643
      4 CA          1.2010   46.0514    3.0477 C.3         1 MS8       0.0305
      5 N           1.9890   46.2141    1.8140 N.4         1 MS8       0.2327
      6 CB          1.7541   44.9307    3.9928 C.3         1 MS8       0.0363
      7 CAS         2.2350   43.5871    3.3335 C.3         1 MS8       0.1229
      8 CAJ         1.2186   42.9889    2.3036 C.3         1 MS8       0.0101
      9 CAN         3.6159   43.6661    2.7728 C.2         1 MS8       0.0769
     10 OAC         4.3637   44.7933    2.7856 O.co2       1 MS8      -0.5451
     11 OAE         4.2032   42.5611    2.2699 O.co2       1 MS8      -0.5451
     12 OAL         2.3514   42.6053    4.3860 O.3         1 MS8      -0.3631
     13 CAR         1.3239   41.6182    4.2231 C.3         1 MS8       0.0848
     14 CAQ         1.1166   41.5120    2.6955 C.3         1 MS8       0.0868
     15 CAH         1.7010   40.2609    4.8655 C.3         1 MS8      -0.0222
     16 CAP         2.7908   39.5198    4.0534 C.3         1 MS8      -0.0270
     17 CAG         2.3827   39.4476    2.5652 C.3         1 MS8       0.0482
     18 OAK         2.1553   40.7603    2.0285 O.3         1 MS8      -0.3740
     19 H1          0.1937   45.7608    2.7429 H           1 MS8       0.1024
     20 H2          2.0027   45.3327    1.2920 H           1 MS8       0.2010
     21 H3          2.9480   46.4865    2.0425 H           1 MS8       0.2010
     22 H4          1.5643   46.9355    1.2275 H           1 MS8       0.2010
     23 H5          0.9543   44.6943    4.6988 H           1 MS8       0.0359
     24 H6          2.5796   45.3234    4.5959 H           1 MS8       0.0359
     25 H7          1.5261   43.1102    1.2580 H           1 MS8       0.0311
     26 H8          0.2199   43.4220    2.4160 H           1 MS8       0.0311
     27 H9          0.4158   41.9903    4.7074 H           1 MS8       0.0620
     28 H10         0.1388   41.0937    2.4366 H           1 MS8       0.0622
     29 H11         0.8082   39.6329    4.9117 H           1 MS8       0.0292
     30 H12         2.0454   40.4230    5.8899 H           1 MS8       0.0292
     31 H13         2.9226   38.5047    4.4324 H           1 MS8       0.0288
     32 H14         3.7429   40.0502    4.1457 H           1 MS8       0.0288
     33 H15         1.4888   38.8277    2.4495 H           1 MS8       0.0560
     34 H16         3.1925   38.9902    1.9960 H           1 MS8       0.0560
@<TRIPOS>BOND
     1     1     2  ar
     2     2     3  ar
     3     2     4   1
     4     4     5   1
     5     4     6   1
     6     6     7   1
     7     7     8   1
     8     7     9   1
     9     7    12   1
    10     8    14   1
    11     9    10  ar
    12     9    11  ar
    13    12    13   1
    14    13    14   1
    15    13    15   1
    16    14    18   1
    17    15    16   1
    18    16    17   1
    19    17    18   1
    20     4    19   1
    21     5    20   1
    22     5    21   1
    23     5    22   1
    24     6    23   1
    25     6    24   1
    26     8    25   1
    27     8    26   1
    28    13    27   1
    29    14    28   1
    30    15    29   1
    31    15    30   1
    32    16    31   1
    33    16    32   1
    34    17    33   1
    35    17    34   1
@<TRIPOS>SUBSTRUCTURE
     1  MS8      2

