@<TRIPOS>MOLECULE
3gbb_ligand_032
    34    35
SMALL
GAST_HUCK
****
This file was generated by PARSER (from files_GN.cpp)

@<TRIPOS>ATOM
      1 O           3.7647   39.4080    4.2781 O.co2       1 MS8      -0.5643
      2 C           3.3866   40.5184    4.9537 C.2         1 MS8       0.0844
      3 OXT         4.1052   40.8547    6.0462 O.co2       1 MS8      -0.5643
      4 CA          2.1027   41.1624    4.6004 C.3         1 MS8       0.0305
      5 N           1.0039   40.2333    4.8971 N.4         1 MS8       0.2327
      6 CB          1.8104   42.5336    5.2931 C.3         1 MS8       0.0363
      7 CAS         2.5403   43.8043    4.7170 C.3         1 MS8       0.1229
      8 CAJ         1.6830   45.1006    4.9073 C.3         1 MS8       0.0101
      9 CAN         3.8887   43.9722    5.3252 C.2         1 MS8       0.0769
     10 OAC         5.0177   43.9667    4.5817 O.co2       1 MS8      -0.5451
     11 OAE         4.0118   44.2447    6.6461 O.co2       1 MS8      -0.5451
     12 OAL         2.6876   43.6343    3.2902 O.3         1 MS8      -0.3631
     13 CAR         1.9027   44.5955    2.5796 C.3         1 MS8       0.0848
     14 CAQ         0.8900   45.1744    3.5920 C.3         1 MS8       0.0868
     15 CAH         2.8557   45.6700    1.9965 C.3         1 MS8      -0.0222
     16 CAP         2.0812   46.9303    1.5633 C.3         1 MS8      -0.0270
     17 CAG         1.2262   47.4622    2.7397 C.3         1 MS8       0.0482
     18 OAK         0.3196   46.4567    3.2335 O.3         1 MS8      -0.3740
     19 H1          2.0894   41.2976    3.5190 H           1 MS8       0.1024
     20 H2          0.1214   40.6720    4.6272 H           1 MS8       0.2010
     21 H3          0.9890   40.0240    5.8954 H           1 MS8       0.2010
     22 H4          1.1219   39.3740    4.3580 H           1 MS8       0.2010
     23 H5          2.0068   42.4346    6.3652 H           1 MS8       0.0359
     24 H6          0.7337   42.6985    5.1995 H           1 MS8       0.0359
     25 H7          2.3067   45.9928    5.0121 H           1 MS8       0.0311
     26 H8          1.0171   45.0512    5.7741 H           1 MS8       0.0311
     27 H9          1.3755   44.0996    1.7616 H           1 MS8       0.0620
     28 H10         0.0448   44.4838    3.6673 H           1 MS8       0.0622
     29 H11         3.3953   45.2596    1.1416 H           1 MS8       0.0292
     30 H12         3.5964   45.9469    2.7475 H           1 MS8       0.0292
     31 H13         1.4301   46.6700    0.7246 H           1 MS8       0.0288
     32 H14         2.7794   47.7058    1.2334 H           1 MS8       0.0288
     33 H15         0.6324   48.3101    2.3960 H           1 MS8       0.0560
     34 H16         1.8726   47.8210    3.5448 H           1 MS8       0.0560
@<TRIPOS>BOND
     1     1     2  ar
     2     2     3  ar
     3     2     4   1
     4     4     5   1
     5     4     6   1
     6     6     7   1
     7     7     8   1
     8     7     9   1
     9     7    12   1
    10     8    14   1
    11     9    10  ar
    12     9    11  ar
    13    12    13   1
    14    13    14   1
    15    13    15   1
    16    14    18   1
    17    15    16   1
    18    16    17   1
    19    17    18   1
    20     4    19   1
    21     5    20   1
    22     5    21   1
    23     5    22   1
    24     6    23   1
    25     6    24   1
    26     8    25   1
    27     8    26   1
    28    13    27   1
    29    14    28   1
    30    15    29   1
    31    15    30   1
    32    16    31   1
    33    16    32   1
    34    17    33   1
    35    17    34   1
@<TRIPOS>SUBSTRUCTURE
     1  MS8      2

