@<TRIPOS>MOLECULE
3gbb_ligand_002
    34    35
SMALL
GAST_HUCK
****
This file was generated by PARSER (from files_GN.cpp)

@<TRIPOS>ATOM
      1 O          -1.3755   43.2480   -1.4640 O.co2       1 MS8      -0.5643
      2 C          -0.9798   44.0922   -0.4821 C.2         1 MS8       0.0844
      3 OXT        -0.6845   45.3586   -0.8512 O.co2       1 MS8      -0.5643
      4 CA         -0.5863   43.5884    0.8582 C.3         1 MS8       0.0305
      5 N          -1.0529   42.1945    0.9432 N.4         1 MS8       0.2327
      6 CB          0.9526   43.7235    1.0971 C.3         1 MS8       0.0363
      7 CAS         1.5582   43.2797    2.4757 C.3         1 MS8       0.1229
      8 CAJ         1.0937   44.1726    3.6675 C.3         1 MS8       0.0101
      9 CAN         1.3231   41.8395    2.7314 C.2         1 MS8       0.0769
     10 OAC         2.2306   40.8918    2.4103 O.co2       1 MS8      -0.5451
     11 OAE         0.2009   41.4310    3.3685 O.co2       1 MS8      -0.5451
     12 OAL         2.9923   43.4432    2.4272 O.3         1 MS8      -0.3631
     13 CAR         3.4469   44.0927    3.6236 C.3         1 MS8       0.0848
     14 CAQ         2.2781   44.1013    4.6366 C.3         1 MS8       0.0868
     15 CAH         4.7263   43.4426    4.2046 C.3         1 MS8      -0.0222
     16 CAP         4.4343   42.1555    5.0197 C.3         1 MS8      -0.0270
     17 CAG         3.3378   42.4317    6.0745 C.3         1 MS8       0.0482
     18 OAK         2.1389   42.9039    5.4390 O.3         1 MS8      -0.3740
     19 H1         -1.1299   44.1852    1.5970 H           1 MS8       0.1024
     20 H2         -0.9927   41.8571    1.8822 H           1 MS8       0.2010
     21 H3         -0.4940   41.6005    0.3368 H           1 MS8       0.2010
     22 H4         -2.0292   42.1376    0.6811 H           1 MS8       0.2010
     23 H5          1.2301   44.7715    0.9529 H           1 MS8       0.0359
     24 H6          1.4537   43.1556    0.3135 H           1 MS8       0.0359
     25 H7          0.1657   43.8319    4.1372 H           1 MS8       0.0311
     26 H8          0.9474   45.2089    3.3503 H           1 MS8       0.0311
     27 H9          3.6812   45.1214    3.3391 H           1 MS8       0.0620
     28 H10         2.3173   44.9784    5.2879 H           1 MS8       0.0622
     29 H11         5.2092   44.1676    4.8690 H           1 MS8       0.0292
     30 H12         5.4274   43.2132    3.3956 H           1 MS8       0.0292
     31 H13         5.3437   41.8172    5.5214 H           1 MS8       0.0288
     32 H14         4.1014   41.3572    4.3510 H           1 MS8       0.0288
     33 H15         3.6869   43.1588    6.8121 H           1 MS8       0.0560
     34 H16         3.1014   41.5033    6.6000 H           1 MS8       0.0560
@<TRIPOS>BOND
     1     1     2  ar
     2     2     3  ar
     3     2     4   1
     4     4     5   1
     5     4     6   1
     6     6     7   1
     7     7     8   1
     8     7     9   1
     9     7    12   1
    10     8    14   1
    11     9    10  ar
    12     9    11  ar
    13    12    13   1
    14    13    14   1
    15    13    15   1
    16    14    18   1
    17    15    16   1
    18    16    17   1
    19    17    18   1
    20     4    19   1
    21     5    20   1
    22     5    21   1
    23     5    22   1
    24     6    23   1
    25     6    24   1
    26     8    25   1
    27     8    26   1
    28    13    27   1
    29    14    28   1
    30    15    29   1
    31    15    30   1
    32    16    31   1
    33    16    32   1
    34    17    33   1
    35    17    34   1
@<TRIPOS>SUBSTRUCTURE
     1  MS8      2

