@<TRIPOS>MOLECULE
3gbb_ligand_009
    34    35
SMALL
GAST_HUCK
****
This file was generated by PARSER (from files_GN.cpp)

@<TRIPOS>ATOM
      1 O          -0.2048   46.1994    1.8687 O.co2       1 MS8      -0.5643
      2 C          -0.5894   44.9428    2.1918 C.2         1 MS8       0.0844
      3 OXT        -1.3909   44.7995    3.2747 O.co2       1 MS8      -0.5643
      4 CA         -0.3179   43.8011    1.2886 C.3         1 MS8       0.0305
      5 N          -0.5806   44.2556   -0.0912 N.4         1 MS8       0.2327
      6 CB          1.1363   43.2299    1.3991 C.3         1 MS8       0.0363
      7 CAS         1.4784   42.2254    2.5706 C.3         1 MS8       0.1229
      8 CAJ         0.9972   42.6190    3.9950 C.3         1 MS8       0.0101
      9 CAN         1.0492   40.8368    2.2498 C.2         1 MS8       0.0769
     10 OAC         1.6891   39.7814    2.8083 O.co2       1 MS8      -0.5451
     11 OAE        -0.1954   40.5832    1.7808 O.co2       1 MS8      -0.5451
     12 OAL         2.9143   42.2006    2.7203 O.3         1 MS8      -0.3631
     13 CAR         3.2972   43.2170    3.6689 C.3         1 MS8       0.0848
     14 CAQ         2.0296   43.6497    4.4554 C.3         1 MS8       0.0868
     15 CAH         4.3941   42.6969    4.6294 C.3         1 MS8      -0.0222
     16 CAP         4.6569   43.7123    5.7740 C.3         1 MS8      -0.0270
     17 CAG         3.3441   44.3161    6.3600 C.3         1 MS8       0.0482
     18 OAK         2.1613   43.6353    5.8952 O.3         1 MS8      -0.3740
     19 H1         -1.0314   43.0015    1.4933 H           1 MS8       0.1024
     20 H2         -0.4314   43.4872   -0.7499 H           1 MS8       0.2010
     21 H3          0.0602   45.0183   -0.3290 H           1 MS8       0.2010
     22 H4         -1.5467   44.5838   -0.1621 H           1 MS8       0.2010
     23 H5          1.8195   44.0809    1.4299 H           1 MS8       0.0359
     24 H6          1.3675   42.7150    0.4611 H           1 MS8       0.0359
     25 H7          1.0369   41.7543    4.6716 H           1 MS8       0.0311
     26 H8         -0.0118   43.0307    4.0109 H           1 MS8       0.0311
     27 H9          3.6981   44.0731    3.1124 H           1 MS8       0.0620
     28 H10         1.7201   44.6507    4.1339 H           1 MS8       0.0622
     29 H11         5.3156   42.5129    4.0705 H           1 MS8       0.0292
     30 H12         4.0673   41.7470    5.0619 H           1 MS8       0.0292
     31 H13         5.2816   44.5223    5.3901 H           1 MS8       0.0288
     32 H14         5.2168   43.2133    6.5679 H           1 MS8       0.0288
     33 H15         3.2709   45.3808    6.1118 H           1 MS8       0.0560
     34 H16         3.3643   44.2437    7.4495 H           1 MS8       0.0560
@<TRIPOS>BOND
     1     1     2  ar
     2     2     3  ar
     3     2     4   1
     4     4     5   1
     5     4     6   1
     6     6     7   1
     7     7     8   1
     8     7     9   1
     9     7    12   1
    10     8    14   1
    11     9    10  ar
    12     9    11  ar
    13    12    13   1
    14    13    14   1
    15    13    15   1
    16    14    18   1
    17    15    16   1
    18    16    17   1
    19    17    18   1
    20     4    19   1
    21     5    20   1
    22     5    21   1
    23     5    22   1
    24     6    23   1
    25     6    24   1
    26     8    25   1
    27     8    26   1
    28    13    27   1
    29    14    28   1
    30    15    29   1
    31    15    30   1
    32    16    31   1
    33    16    32   1
    34    17    33   1
    35    17    34   1
@<TRIPOS>SUBSTRUCTURE
     1  MS8      2

