@<TRIPOS>MOLECULE
3gbb_ligand_061
    34    35
SMALL
GAST_HUCK
****
This file was generated by PARSER (from files_GN.cpp)

@<TRIPOS>ATOM
      1 O           0.0054   44.1388    3.9759 O.co2       1 MS8      -0.5643
      2 C           0.6251   43.8142    2.8115 C.2         1 MS8       0.0844
      3 OXT         1.3346   44.7866    2.1943 O.co2       1 MS8      -0.5643
      4 CA          0.4155   42.4824    2.2091 C.3         1 MS8       0.0305
      5 N           1.0472   42.3790    0.8835 N.4         1 MS8       0.2327
      6 CB          0.8031   41.2854    3.1404 C.3         1 MS8       0.0363
      7 CAS         2.3225   40.9342    3.4097 C.3         1 MS8       0.1229
      8 CAJ         2.6493   40.7442    4.9222 C.3         1 MS8       0.0101
      9 CAN         2.6940   39.7018    2.6656 C.2         1 MS8       0.0769
     10 OAC         2.2600   38.4905    3.0856 O.co2       1 MS8      -0.5451
     11 OAE         3.0718   39.7813    1.3680 O.co2       1 MS8      -0.5451
     12 OAL         3.2234   41.9885    3.0292 O.3         1 MS8      -0.3631
     13 CAR         3.3429   42.9064    4.1284 C.3         1 MS8       0.0848
     14 CAQ         2.9245   42.1658    5.4278 C.3         1 MS8       0.0868
     15 CAH         4.7807   43.4692    4.2426 C.3         1 MS8      -0.0222
     16 CAP         4.8986   44.3039    5.5497 C.3         1 MS8      -0.0270
     17 CAG         4.4237   43.4937    6.7936 C.3         1 MS8       0.0482
     18 OAK         3.9338   42.1724    6.4671 O.3         1 MS8      -0.3740
     19 H1         -0.6611   42.4138    2.0126 H           1 MS8       0.1024
     20 H2          0.7187   41.5293    0.4184 H           1 MS8       0.2010
     21 H3          2.0623   42.3489    0.9981 H           1 MS8       0.2010
     22 H4          0.7947   43.1939    0.3188 H           1 MS8       0.2010
     23 H5          0.3187   40.4070    2.7034 H           1 MS8       0.0359
     24 H6          0.2993   41.4469    4.0974 H           1 MS8       0.0359
     25 H7          3.5541   40.1359    5.0544 H           1 MS8       0.0311
     26 H8          1.8325   40.2726    5.4731 H           1 MS8       0.0311
     27 H9          2.6738   43.7505    3.9618 H           1 MS8       0.0620
     28 H10         2.0013   42.6049    5.8201 H           1 MS8       0.0622
     29 H11         5.0144   44.0937    3.3736 H           1 MS8       0.0292
     30 H12         5.5037   42.6441    4.2663 H           1 MS8       0.0292
     31 H13         4.2777   45.2005    5.4525 H           1 MS8       0.0288
     32 H14         5.9330   44.6374    5.6810 H           1 MS8       0.0288
     33 H15         3.6379   44.0469    7.3170 H           1 MS8       0.0560
     34 H16         5.2610   43.3760    7.4822 H           1 MS8       0.0560
@<TRIPOS>BOND
     1     1     2  ar
     2     2     3  ar
     3     2     4   1
     4     4     5   1
     5     4     6   1
     6     6     7   1
     7     7     8   1
     8     7     9   1
     9     7    12   1
    10     8    14   1
    11     9    10  ar
    12     9    11  ar
    13    12    13   1
    14    13    14   1
    15    13    15   1
    16    14    18   1
    17    15    16   1
    18    16    17   1
    19    17    18   1
    20     4    19   1
    21     5    20   1
    22     5    21   1
    23     5    22   1
    24     6    23   1
    25     6    24   1
    26     8    25   1
    27     8    26   1
    28    13    27   1
    29    14    28   1
    30    15    29   1
    31    15    30   1
    32    16    31   1
    33    16    32   1
    34    17    33   1
    35    17    34   1
@<TRIPOS>SUBSTRUCTURE
     1  MS8      2

