@<TRIPOS>MOLECULE
3gbb_ligand_049
    34    35
SMALL
GAST_HUCK
****
This file was generated by PARSER (from files_GN.cpp)

@<TRIPOS>ATOM
      1 O           3.1511   48.7068    0.9214 O.co2       1 MS8      -0.5643
      2 C           2.6413   47.4635    1.0468 C.2         1 MS8       0.0844
      3 OXT         3.3167   46.5066    0.3724 O.co2       1 MS8      -0.5643
      4 CA          1.9250   47.1059    2.2935 C.3         1 MS8       0.0305
      5 N           1.1341   48.2573    2.7890 N.4         1 MS8       0.2327
      6 CB          1.0016   45.8542    2.1295 C.3         1 MS8       0.0363
      7 CAS         0.8197   44.8425    3.3314 C.3         1 MS8       0.1229
      8 CAJ         0.8653   45.4050    4.7817 C.3         1 MS8       0.0101
      9 CAN        -0.4493   44.1055    3.0866 C.2         1 MS8       0.0769
     10 OAC        -1.6189   44.7228    3.3794 O.co2       1 MS8      -0.5451
     11 OAE        -0.5024   43.1657    2.1118 O.co2       1 MS8      -0.5451
     12 OAL         1.8636   43.8483    3.3237 O.3         1 MS8      -0.3631
     13 CAR         2.8792   44.1635    4.2843 C.3         1 MS8       0.0848
     14 CAQ         2.3293   45.2648    5.2298 C.3         1 MS8       0.0868
     15 CAH         3.2912   42.9037    5.0943 C.3         1 MS8      -0.0222
     16 CAP         4.2137   43.2684    6.2922 C.3         1 MS8      -0.0270
     17 CAG         3.7929   44.5917    6.9979 C.3         1 MS8       0.0482
     18 OAK         2.4477   44.9661    6.6373 O.3         1 MS8      -0.3740
     19 H1          2.6998   46.9048    3.0154 H           1 MS8       0.1024
     20 H2          0.6818   48.0317    3.6741 H           1 MS8       0.2010
     21 H3          0.4150   48.4831    2.0984 H           1 MS8       0.2010
     22 H4          1.7386   49.0648    2.9259 H           1 MS8       0.2010
     23 H5          1.3419   45.2397    1.2935 H           1 MS8       0.0359
     24 H6          0.0247   46.2407    1.8157 H           1 MS8       0.0359
     25 H7          0.2412   44.8084    5.4527 H           1 MS8       0.0311
     26 H8          0.5188   46.4323    4.8356 H           1 MS8       0.0311
     27 H9          3.7594   44.5261    3.7492 H           1 MS8       0.0620
     28 H10         2.8597   46.2050    5.0720 H           1 MS8       0.0622
     29 H11         3.7922   42.1822    4.4463 H           1 MS8       0.0292
     30 H12         2.3879   42.4271    5.4878 H           1 MS8       0.0292
     31 H13         5.2399   43.3755    5.9323 H           1 MS8       0.0288
     32 H14         4.1975   42.4436    7.0131 H           1 MS8       0.0288
     33 H15         4.4869   45.3978    6.7386 H           1 MS8       0.0560
     34 H16         3.8370   44.4689    8.0793 H           1 MS8       0.0560
@<TRIPOS>BOND
     1     1     2  ar
     2     2     3  ar
     3     2     4   1
     4     4     5   1
     5     4     6   1
     6     6     7   1
     7     7     8   1
     8     7     9   1
     9     7    12   1
    10     8    14   1
    11     9    10  ar
    12     9    11  ar
    13    12    13   1
    14    13    14   1
    15    13    15   1
    16    14    18   1
    17    15    16   1
    18    16    17   1
    19    17    18   1
    20     4    19   1
    21     5    20   1
    22     5    21   1
    23     5    22   1
    24     6    23   1
    25     6    24   1
    26     8    25   1
    27     8    26   1
    28    13    27   1
    29    14    28   1
    30    15    29   1
    31    15    30   1
    32    16    31   1
    33    16    32   1
    34    17    33   1
    35    17    34   1
@<TRIPOS>SUBSTRUCTURE
     1  MS8      2

