@<TRIPOS>MOLECULE
3gcs_ligand_035
    48    50
SMALL
GAST_HUCK
****
This file was generated by PARSER (from files_GN.cpp)

@<TRIPOS>ATOM
      1 C1        -18.1533   -5.7346   16.4534 C.ar        1 BAX      -0.0127
      2 C2        -19.1368   -4.7228   16.3952 C.ar        1 BAX       0.0959
      3 C3        -19.5154   -4.2518   15.1187 C.ar        1 BAX      -0.0108
      4 C4        -18.9125   -4.7524   13.9536 C.ar        1 BAX      -0.0291
      5 C13       -20.4136   -3.2420   17.8908 C.2         1 BAX       0.3148
      6 C16       -21.4667   -2.0735   19.7398 C.ar        1 BAX       0.0577
      7 C17       -22.6721   -1.5873   19.1849 C.ar        1 BAX      -0.0478
      8 C18       -23.3748   -0.5320   19.7966 C.ar        1 BAX      -0.0404
      9 C19       -22.8812    0.0690   20.9696 C.ar        1 BAX       0.1047
     10 C20       -21.7190   -0.4631   21.5712 C.ar        1 BAX      -0.0404
     11 C21       -21.0207   -1.5253   20.9622 C.ar        1 BAX      -0.0478
     12 O22       -23.5378    1.1704   21.4743 O.3         1 BAX      -0.2564
     13 C24       -21.7272    2.7214   20.8172 C.ar        1 BAX       0.0024
     14 C25       -21.0114    3.8901   21.1123 C.ar        1 BAX       0.0057
     15 C27       -22.4927    4.4086   22.9290 C.ar        1 BAX       0.1117
     16 C28       -23.2102    3.2103   22.6784 C.ar        1 BAX       0.0183
     17 N30       -22.1080    6.4234   24.0917 N.am        1 BAX      -0.2874
     18 C31       -22.3542    7.4688   25.0266 C.3         1 BAX       0.0193
     19 C5        -17.9237   -5.7503   14.0331 C.ar        1 BAX       0.0592
     20 C6        -17.5327   -6.2709   15.2978 C.ar        1 BAX       0.0462
     21 C7        -16.5074   -7.3587   15.4242 C.3         1 BAX       0.3715
     22 F8        -16.2342   -7.7590   16.7146 F           1 BAX      -0.2224
     23 F9        -16.9337   -8.4873   14.7649 F           1 BAX      -0.2224
     24 F10       -15.3058   -6.9502   14.8965 F           1 BAX      -0.2224
     25 CL11      -17.2577   -6.2671   12.5589 Cl          1 BAX      -0.0539
     26 N12       -19.6687   -4.3004   17.5902 N.am        1 BAX      -0.2087
     27 N14       -20.7458   -3.0935   19.1719 N.am        1 BAX      -0.2199
     28 O15       -20.7050   -2.3921   17.0602 O.2         1 BAX      -0.3813
     29 C23       -22.8169    2.3392   21.6373 C.ar        1 BAX       0.1379
     30 N26       -21.4166    4.6766   22.1364 N.ar        1 BAX      -0.2925
     31 C29       -22.8356    5.3227   23.9229 C.2         1 BAX       0.2205
     32 O32       -23.8168    5.1297   24.6327 O.2         1 BAX      -0.3791
     33 H1        -17.8792   -6.0837   17.3729 H           1 BAX       0.0706
     34 H2        -20.2461   -3.5534   15.0218 H           1 BAX       0.0758
     35 H3        -19.2054   -4.3858   13.0472 H           1 BAX       0.0670
     36 H4        -23.0536   -2.0152   18.3384 H           1 BAX       0.0480
     37 H5        -24.2392   -0.1872   19.3771 H           1 BAX       0.0520
     38 H6        -21.3558   -0.0515   22.4302 H           1 BAX       0.0520
     39 H7        -20.1636   -1.8717   21.3990 H           1 BAX       0.0480
     40 H8        -21.4354    2.1450   20.0257 H           1 BAX       0.0673
     41 H9        -20.1949    4.1524   20.5583 H           1 BAX       0.0803
     42 H10       -24.0186    2.9612   23.2534 H           1 BAX       0.0696
     43 H11       -21.3360    6.5331   23.5147 H           1 BAX       0.1844
     44 H12       -21.5740    8.2238   24.9175 H           1 BAX       0.0484
     45 H13       -22.3306    7.0861   26.0482 H           1 BAX       0.0484
     46 H14       -23.3218    7.9341   24.8303 H           1 BAX       0.0484
     47 H15       -19.4351   -4.8537   18.3538 H           1 BAX       0.2266
     48 H16       -20.3844   -3.7517   19.7865 H           1 BAX       0.2230
@<TRIPOS>BOND
     1     2     1  ar
     2     1    20  ar
     3     2     3  ar
     4    26     2   1
     5     3     4  ar
     6     4    19  ar
     7     5    26  am
     8    27     5  am
     9     5    28   2
    10     7     6  ar
    11    11     6  ar
    12     6    27   1
    13     8     7  ar
    14     9     8  ar
    15     9    10  ar
    16    12     9   1
    17    10    11  ar
    18    29    12   1
    19    14    13  ar
    20    29    13  ar
    21    30    14  ar
    22    15    16  ar
    23    15    30  ar
    24    31    15   1
    25    16    29  ar
    26    17    18   1
    27    17    31  am
    28    19    20  ar
    29    19    25   1
    30    20    21   1
    31    21    22   1
    32    21    23   1
    33    21    24   1
    34    31    32   2
    35     1    33   1
    36     3    34   1
    37     4    35   1
    38     7    36   1
    39     8    37   1
    40    10    38   1
    41    11    39   1
    42    13    40   1
    43    14    41   1
    44    16    42   1
    45    17    43   1
    46    18    44   1
    47    18    45   1
    48    18    46   1
    49    26    47   1
    50    27    48   1
@<TRIPOS>SUBSTRUCTURE
     1  BAX      1

