@<TRIPOS>MOLECULE
3gcs_ligand_031
    48    50
SMALL
GAST_HUCK
****
This file was generated by PARSER (from files_GN.cpp)

@<TRIPOS>ATOM
      1 C1        -14.8793   -9.1916   18.5097 C.ar        1 BAX      -0.0127
      2 C2        -14.8828   -7.8106   18.7958 C.ar        1 BAX       0.0959
      3 C3        -13.6554   -7.1266   18.8526 C.ar        1 BAX      -0.0108
      4 C4        -12.4613   -7.7927   18.5375 C.ar        1 BAX      -0.0291
      5 C13       -16.9172   -6.8623   17.9819 C.2         1 BAX       0.3148
      6 C16       -18.6888   -5.2786   17.3917 C.ar        1 BAX       0.0577
      7 C17       -19.5762   -4.3549   17.9850 C.ar        1 BAX      -0.0478
      8 C18       -20.3726   -3.5035   17.1956 C.ar        1 BAX      -0.0404
      9 C19       -20.3119   -3.5502   15.7869 C.ar        1 BAX       0.1047
     10 C20       -19.4031   -4.4608   15.1892 C.ar        1 BAX      -0.0404
     11 C21       -18.6117   -5.3207   15.9765 C.ar        1 BAX      -0.0478
     12 O22       -21.1271   -2.6728   15.0969 O.3         1 BAX      -0.2564
     13 C24       -22.5639   -3.9228   13.6117 C.ar        1 BAX       0.0024
     14 C25       -22.8570   -4.3297   12.3009 C.ar        1 BAX       0.0057
     15 C27       -21.0832   -2.9682   11.4077 C.ar        1 BAX       0.1117
     16 C28       -20.7787   -2.5219   12.7224 C.ar        1 BAX       0.0183
     17 N30       -20.6029   -3.1062    9.0945 N.am        1 BAX      -0.2874
     18 C31       -19.8423   -2.8872    7.9078 C.3         1 BAX       0.0193
     19 C5        -12.4673   -9.1588   18.1956 C.ar        1 BAX       0.0592
     20 C6        -13.6868   -9.8980   18.2141 C.ar        1 BAX       0.0462
     21 C7        -13.7272  -11.3620   17.9191 C.3         1 BAX       0.3715
     22 F8        -14.9739  -11.9366   17.9843 F           1 BAX      -0.2224
     23 F9        -13.2762  -11.6046   16.6480 F           1 BAX      -0.2224
     24 F10       -12.9426  -12.0424   18.8170 F           1 BAX      -0.2224
     25 CL11      -10.9798   -9.8230   17.7103 Cl          1 BAX      -0.0539
     26 N12       -16.0440   -7.1065   18.9496 N.am        1 BAX      -0.2087
     27 N14       -17.8697   -5.9779   18.2444 N.am        1 BAX      -0.2199
     28 O15       -16.8004   -7.3763   16.8727 O.2         1 BAX      -0.3813
     29 C23       -21.4977   -3.0267   13.8269 C.ar        1 BAX       0.1379
     30 N26       -22.1108   -3.8555   11.2690 N.ar        1 BAX      -0.2925
     31 C29       -20.3334   -2.6009   10.2923 C.2         1 BAX       0.2205
     32 O32       -19.3821   -1.8360   10.4196 O.2         1 BAX      -0.3791
     33 H1        -15.7752   -9.6792   18.5104 H           1 BAX       0.0706
     34 H2        -13.6259   -6.1252   19.0572 H           1 BAX       0.0758
     35 H3        -11.5933   -7.2545   18.4956 H           1 BAX       0.0670
     36 H4        -19.6465   -4.2967   19.0060 H           1 BAX       0.0480
     37 H5        -21.0064   -2.8474   17.6588 H           1 BAX       0.0520
     38 H6        -19.3023   -4.5118   14.1710 H           1 BAX       0.0520
     39 H7        -17.9522   -5.9343   15.4925 H           1 BAX       0.0480
     40 H8        -23.0964   -4.2953   14.4003 H           1 BAX       0.0673
     41 H9        -23.5989   -5.0061   12.1194 H           1 BAX       0.0803
     42 H10       -20.0052   -1.8768   12.8911 H           1 BAX       0.0696
     43 H11       -21.3695   -3.6996    9.0194 H           1 BAX       0.1844
     44 H12       -20.3123   -3.4153    7.0751 H           1 BAX       0.0484
     45 H13       -18.8270   -3.2691    8.0340 H           1 BAX       0.0484
     46 H14       -19.8025   -1.8233    7.6693 H           1 BAX       0.0484
     47 H15       -16.1404   -6.5854   19.7618 H           1 BAX       0.2266
     48 H16       -17.9754   -5.7465   19.1823 H           1 BAX       0.2230
@<TRIPOS>BOND
     1     2     1  ar
     2     1    20  ar
     3     2     3  ar
     4    26     2   1
     5     3     4  ar
     6     4    19  ar
     7     5    26  am
     8    27     5  am
     9     5    28   2
    10     7     6  ar
    11    11     6  ar
    12     6    27   1
    13     8     7  ar
    14     9     8  ar
    15     9    10  ar
    16    12     9   1
    17    10    11  ar
    18    29    12   1
    19    14    13  ar
    20    29    13  ar
    21    30    14  ar
    22    15    16  ar
    23    15    30  ar
    24    31    15   1
    25    16    29  ar
    26    17    18   1
    27    17    31  am
    28    19    20  ar
    29    19    25   1
    30    20    21   1
    31    21    22   1
    32    21    23   1
    33    21    24   1
    34    31    32   2
    35     1    33   1
    36     3    34   1
    37     4    35   1
    38     7    36   1
    39     8    37   1
    40    10    38   1
    41    11    39   1
    42    13    40   1
    43    14    41   1
    44    16    42   1
    45    17    43   1
    46    18    44   1
    47    18    45   1
    48    18    46   1
    49    26    47   1
    50    27    48   1
@<TRIPOS>SUBSTRUCTURE
     1  BAX      1

