@<TRIPOS>MOLECULE
3gcs_ligand_032
    48    50
SMALL
GAST_HUCK
****
This file was generated by PARSER (from files_GN.cpp)

@<TRIPOS>ATOM
      1 C1        -16.6635   -7.5362   17.5541 C.ar        1 BAX      -0.0127
      2 C2        -16.4783   -6.8886   16.3115 C.ar        1 BAX       0.0959
      3 C3        -15.1845   -6.9274   15.7417 C.ar        1 BAX      -0.0108
      4 C4        -14.1262   -7.5917   16.3821 C.ar        1 BAX      -0.0291
      5 C13       -17.7773   -5.7254   14.5785 C.2         1 BAX       0.3148
      6 C16       -19.3079   -4.3891   13.2724 C.ar        1 BAX       0.0577
      7 C17       -20.6475   -4.4803   12.8392 C.ar        1 BAX      -0.0478
      8 C18       -21.0793   -3.7883   11.6909 C.ar        1 BAX      -0.0404
      9 C19       -20.1899   -2.9762   10.9558 C.ar        1 BAX       0.1047
     10 C20       -18.8574   -2.8504   11.4227 C.ar        1 BAX      -0.0404
     11 C21       -18.4273   -3.5408   12.5657 C.ar        1 BAX      -0.0478
     12 O22       -20.7339   -2.3126    9.8741 O.3         1 BAX      -0.2564
     13 C24       -19.9350   -2.5354    7.6121 C.ar        1 BAX       0.0024
     14 C25       -19.0861   -2.0719    6.5938 C.ar        1 BAX       0.0057
     15 C27       -18.2286   -0.3249    8.0088 C.ar        1 BAX       0.1117
     16 C28       -19.0926   -0.7516    9.0466 C.ar        1 BAX       0.0183
     17 N30       -16.4560    1.0081    7.2200 N.am        1 BAX      -0.2874
     18 C31       -15.4975    2.0627    7.2584 C.3         1 BAX       0.0193
     19 C5        -14.3329   -8.2337   17.6173 C.ar        1 BAX       0.0592
     20 C6        -15.6182   -8.2183   18.2303 C.ar        1 BAX       0.0462
     21 C7        -15.8606   -8.8731   19.5521 C.3         1 BAX       0.3715
     22 F8        -17.1563   -8.8075   20.0037 F           1 BAX      -0.2224
     23 F9        -15.5583  -10.2125   19.4904 F           1 BAX      -0.2224
     24 F10       -15.0837   -8.2830   20.5206 F           1 BAX      -0.2224
     25 CL11      -12.9804   -9.0010   18.3081 Cl          1 BAX      -0.0539
     26 N12       -17.5675   -6.2382   15.7873 N.am        1 BAX      -0.2087
     27 N14       -18.9271   -5.0874   14.3838 N.am        1 BAX      -0.2199
     28 O15       -16.9696   -5.8538   13.6712 O.2         1 BAX      -0.3813
     29 C23       -19.9129   -1.8856    8.8626 C.ar        1 BAX       0.1379
     30 N26       -18.2721   -1.0095    6.8271 N.ar        1 BAX      -0.2925
     31 C29       -17.3478    0.7385    8.1653 C.2         1 BAX       0.2205
     32 O32       -17.3794    1.4242    9.1801 O.2         1 BAX      -0.3791
     33 H1        -17.5949   -7.4994   17.9798 H           1 BAX       0.0706
     34 H2        -14.9733   -6.4490   14.8663 H           1 BAX       0.0758
     35 H3        -13.2029   -7.5958   15.9449 H           1 BAX       0.0670
     36 H4        -21.3138   -5.0695   13.3450 H           1 BAX       0.0480
     37 H5        -22.0544   -3.8763   11.3924 H           1 BAX       0.0520
     38 H6        -18.1874   -2.2501   10.9475 H           1 BAX       0.0520
     39 H7        -17.4673   -3.4005   12.8835 H           1 BAX       0.0480
     40 H8        -20.5633   -3.3211    7.4407 H           1 BAX       0.0673
     41 H9        -19.0704   -2.5281    5.6815 H           1 BAX       0.0803
     42 H10       -19.0976   -0.2756    9.9477 H           1 BAX       0.0696
     43 H11       -16.4513    0.4391    6.4361 H           1 BAX       0.1844
     44 H12       -14.8986    2.0269    6.3487 H           1 BAX       0.0484
     45 H13       -14.8384    1.9472    8.1198 H           1 BAX       0.0484
     46 H14       -16.0021    3.0295    7.3106 H           1 BAX       0.0484
     47 H15       -18.3114   -6.1119   16.4024 H           1 BAX       0.2266
     48 H16       -19.5945   -5.1674   15.0882 H           1 BAX       0.2230
@<TRIPOS>BOND
     1     2     1  ar
     2     1    20  ar
     3     2     3  ar
     4    26     2   1
     5     3     4  ar
     6     4    19  ar
     7     5    26  am
     8    27     5  am
     9     5    28   2
    10     7     6  ar
    11    11     6  ar
    12     6    27   1
    13     8     7  ar
    14     9     8  ar
    15     9    10  ar
    16    12     9   1
    17    10    11  ar
    18    29    12   1
    19    14    13  ar
    20    29    13  ar
    21    30    14  ar
    22    15    16  ar
    23    15    30  ar
    24    31    15   1
    25    16    29  ar
    26    17    18   1
    27    17    31  am
    28    19    20  ar
    29    19    25   1
    30    20    21   1
    31    21    22   1
    32    21    23   1
    33    21    24   1
    34    31    32   2
    35     1    33   1
    36     3    34   1
    37     4    35   1
    38     7    36   1
    39     8    37   1
    40    10    38   1
    41    11    39   1
    42    13    40   1
    43    14    41   1
    44    16    42   1
    45    17    43   1
    46    18    44   1
    47    18    45   1
    48    18    46   1
    49    26    47   1
    50    27    48   1
@<TRIPOS>SUBSTRUCTURE
     1  BAX      1

