@<TRIPOS>MOLECULE
3gcs_ligand_047
    48    50
SMALL
GAST_HUCK
****
This file was generated by PARSER (from files_GN.cpp)

@<TRIPOS>ATOM
      1 C1        -21.9711   -2.0830   21.1885 C.ar        1 BAX      -0.0127
      2 C2        -21.0969   -2.6500   20.2413 C.ar        1 BAX       0.0959
      3 C3        -19.7179   -2.3585   20.3109 C.ar        1 BAX      -0.0108
      4 C4        -19.2400   -1.4674   21.2849 C.ar        1 BAX      -0.0291
      5 C13       -21.5291   -3.1442   17.9525 C.2         1 BAX       0.3148
      6 C16       -22.4309   -3.7787   15.7835 C.ar        1 BAX       0.0577
      7 C17       -23.6032   -4.3699   15.2568 C.ar        1 BAX      -0.0478
      8 C18       -23.9247   -4.2497   13.8947 C.ar        1 BAX      -0.0404
      9 C19       -23.0662   -3.5398   13.0314 C.ar        1 BAX       0.1047
     10 C20       -21.8910   -2.9544   13.5402 C.ar        1 BAX      -0.0404
     11 C21       -21.5546   -3.1073   14.8929 C.ar        1 BAX      -0.0478
     12 O22       -23.3429   -3.3929   11.7077 O.3         1 BAX      -0.2564
     13 C24       -24.0231   -4.9813   10.1035 C.ar        1 BAX       0.0024
     14 C25       -23.7282   -6.0645    9.2673 C.ar        1 BAX       0.0057
     15 C27       -21.4535   -6.1527   10.0556 C.ar        1 BAX       0.1117
     16 C28       -21.7217   -5.0438   10.8948 C.ar        1 BAX       0.0183
     17 N30       -20.0044   -7.8225    9.2189 N.am        1 BAX      -0.2874
     18 C31       -18.7892   -8.5447    9.0749 C.3         1 BAX       0.0193
     19 C5        -20.1257   -0.8683   22.2009 C.ar        1 BAX       0.0592
     20 C6        -21.5192   -1.1629   22.1710 C.ar        1 BAX       0.0462
     21 C7        -22.4842   -0.5047   23.0975 C.3         1 BAX       0.3715
     22 F8        -23.8003   -0.8553   22.9048 F           1 BAX      -0.2224
     23 F9        -22.1926   -0.8129   24.4016 F           1 BAX      -0.2224
     24 F10       -22.4344    0.8616   22.9453 F           1 BAX      -0.2224
     25 CL11      -19.4352    0.2343   23.2944 Cl          1 BAX      -0.0539
     26 N12       -21.6275   -3.4101   19.2449 N.am        1 BAX      -0.2087
     27 N14       -22.2446   -3.8946   17.1332 N.am        1 BAX      -0.2199
     28 O15       -20.9335   -2.1392   17.5576 O.2         1 BAX      -0.3813
     29 C23       -23.0148   -4.4732   10.9390 C.ar        1 BAX       0.1379
     30 N26       -22.4783   -6.6008    9.2798 N.ar        1 BAX      -0.2925
     31 C29       -20.2109   -6.7785   10.0187 C.2         1 BAX       0.2205
     32 O32       -19.2929   -6.3820   10.7306 O.2         1 BAX      -0.3791
     33 H1        -22.9679   -2.3096   21.1215 H           1 BAX       0.0706
     34 H2        -19.0643   -2.7771   19.6516 H           1 BAX       0.0758
     35 H3        -18.2465   -1.2427   21.2928 H           1 BAX       0.0670
     36 H4        -24.2420   -4.8830   15.8695 H           1 BAX       0.0480
     37 H5        -24.7736   -4.6906   13.5288 H           1 BAX       0.0520
     38 H6        -21.2642   -2.4461   12.9113 H           1 BAX       0.0520
     39 H7        -20.6641   -2.7203   15.2063 H           1 BAX       0.0480
     40 H8        -24.9578   -4.5692   10.0971 H           1 BAX       0.0673
     41 H9        -24.4503   -6.4494    8.6556 H           1 BAX       0.0803
     42 H10       -20.9792   -4.6593   11.4784 H           1 BAX       0.0696
     43 H11       -20.7538   -8.1195    8.6866 H           1 BAX       0.1844
     44 H12       -18.9392   -9.3365    8.3430 H           1 BAX       0.0484
     45 H13       -18.4963   -8.9962   10.0245 H           1 BAX       0.0484
     46 H14       -17.9924   -7.8856    8.7237 H           1 BAX       0.0484
     47 H15       -22.2676   -4.0902   19.5055 H           1 BAX       0.2266
     48 H16       -22.7664   -4.5868   17.5681 H           1 BAX       0.2230
@<TRIPOS>BOND
     1     2     1  ar
     2     1    20  ar
     3     2     3  ar
     4    26     2   1
     5     3     4  ar
     6     4    19  ar
     7     5    26  am
     8    27     5  am
     9     5    28   2
    10     7     6  ar
    11    11     6  ar
    12     6    27   1
    13     8     7  ar
    14     9     8  ar
    15     9    10  ar
    16    12     9   1
    17    10    11  ar
    18    29    12   1
    19    14    13  ar
    20    29    13  ar
    21    30    14  ar
    22    15    16  ar
    23    15    30  ar
    24    31    15   1
    25    16    29  ar
    26    17    18   1
    27    17    31  am
    28    19    20  ar
    29    19    25   1
    30    20    21   1
    31    21    22   1
    32    21    23   1
    33    21    24   1
    34    31    32   2
    35     1    33   1
    36     3    34   1
    37     4    35   1
    38     7    36   1
    39     8    37   1
    40    10    38   1
    41    11    39   1
    42    13    40   1
    43    14    41   1
    44    16    42   1
    45    17    43   1
    46    18    44   1
    47    18    45   1
    48    18    46   1
    49    26    47   1
    50    27    48   1
@<TRIPOS>SUBSTRUCTURE
     1  BAX      1

