@<TRIPOS>MOLECULE
3gcs_ligand_003
    48    50
SMALL
GAST_HUCK
****
This file was generated by PARSER (from files_GN.cpp)

@<TRIPOS>ATOM
      1 C1        -17.0719   -6.5794   18.5439 C.ar        1 BAX      -0.0127
      2 C2        -17.8353   -6.4121   17.3646 C.ar        1 BAX       0.0959
      3 C3        -17.4300   -7.0891   16.1974 C.ar        1 BAX      -0.0108
      4 C4        -16.2766   -7.8878   16.1988 C.ar        1 BAX      -0.0291
      5 C13       -19.2233   -4.4842   17.8777 C.2         1 BAX       0.3148
      6 C16       -20.7846   -2.6505   17.8669 C.ar        1 BAX       0.0577
      7 C17       -20.1691   -1.6189   17.1160 C.ar        1 BAX      -0.0478
      8 C18       -20.5712   -0.2777   17.2690 C.ar        1 BAX      -0.0404
      9 C19       -21.6303    0.0691   18.1453 C.ar        1 BAX       0.1047
     10 C20       -22.2420   -0.9701   18.8795 C.ar        1 BAX      -0.0404
     11 C21       -21.8354   -2.3065   18.7403 C.ar        1 BAX      -0.0478
     12 O22       -22.0807    1.3621   18.3545 O.3         1 BAX      -0.2564
     13 C24       -21.0786    3.4043   17.5859 C.ar        1 BAX       0.0024
     14 C25       -20.8716    4.3376   16.5550 C.ar        1 BAX       0.0057
     15 C27       -22.3002    3.1026   15.0666 C.ar        1 BAX       0.1117
     16 C28       -22.5564    2.1647   16.1010 C.ar        1 BAX       0.0183
     17 N30       -22.3944    3.8019   12.8165 N.am        1 BAX      -0.2874
     18 C31       -22.7118    3.6944   11.4358 C.3         1 BAX       0.0193
     19 C5        -15.5054   -8.0326   17.3692 C.ar        1 BAX       0.0592
     20 C6        -15.8909   -7.3668   18.5699 C.ar        1 BAX       0.0462
     21 C7        -15.0879   -7.4943   19.8271 C.3         1 BAX       0.3715
     22 F8        -15.5621   -6.7766   20.8976 F           1 BAX      -0.2224
     23 F9        -15.0533   -8.8039   20.2341 F           1 BAX      -0.2224
     24 F10       -13.8025   -7.0460   19.6246 F           1 BAX      -0.2224
     25 CL11      -14.1327   -9.0282   17.2580 Cl          1 BAX      -0.0539
     26 N12       -18.9816   -5.6546   17.3051 N.am        1 BAX      -0.2087
     27 N14       -20.4178   -3.9482   17.6582 N.am        1 BAX      -0.2199
     28 O15       -18.3710   -3.8910   18.5224 O.2         1 BAX      -0.3813
     29 C23       -21.9214    2.2947   17.3586 C.ar        1 BAX       0.1379
     30 N26       -21.4715    4.1431   15.3577 N.ar        1 BAX      -0.2925
     31 C29       -22.8046    2.9760   13.7721 C.2         1 BAX       0.2205
     32 O32       -23.5873    2.0755   13.4887 O.2         1 BAX      -0.3791
     33 H1        -17.3945   -6.1261   19.3963 H           1 BAX       0.0706
     34 H2        -17.9606   -6.9849   15.3307 H           1 BAX       0.0758
     35 H3        -15.9992   -8.3610   15.3352 H           1 BAX       0.0670
     36 H4        -19.4348   -1.8379   16.4387 H           1 BAX       0.0480
     37 H5        -20.0965    0.4338   16.7267 H           1 BAX       0.0520
     38 H6        -23.0077   -0.7426   19.5342 H           1 BAX       0.0520
     39 H7        -22.2926   -3.0383   19.2908 H           1 BAX       0.0480
     40 H8        -20.5984    3.5185   18.4834 H           1 BAX       0.0673
     41 H9        -20.2592    5.1403   16.6929 H           1 BAX       0.0803
     42 H10       -23.1609    1.3561   15.9364 H           1 BAX       0.0696
     43 H11       -21.7750    4.5072   13.0695 H           1 BAX       0.1844
     44 H12       -22.2308    4.5097   10.8896 H           1 BAX       0.0484
     45 H13       -23.7935    3.7567   11.2756 H           1 BAX       0.0484
     46 H14       -22.3418    2.7473   11.0427 H           1 BAX       0.0484
     47 H15       -19.6446   -5.9486   16.6617 H           1 BAX       0.2266
     48 H16       -21.0793   -4.5213   17.2320 H           1 BAX       0.2230
@<TRIPOS>BOND
     1     2     1  ar
     2     1    20  ar
     3     2     3  ar
     4    26     2   1
     5     3     4  ar
     6     4    19  ar
     7     5    26  am
     8    27     5  am
     9     5    28   2
    10     7     6  ar
    11    11     6  ar
    12     6    27   1
    13     8     7  ar
    14     9     8  ar
    15     9    10  ar
    16    12     9   1
    17    10    11  ar
    18    29    12   1
    19    14    13  ar
    20    29    13  ar
    21    30    14  ar
    22    15    16  ar
    23    15    30  ar
    24    31    15   1
    25    16    29  ar
    26    17    18   1
    27    17    31  am
    28    19    20  ar
    29    19    25   1
    30    20    21   1
    31    21    22   1
    32    21    23   1
    33    21    24   1
    34    31    32   2
    35     1    33   1
    36     3    34   1
    37     4    35   1
    38     7    36   1
    39     8    37   1
    40    10    38   1
    41    11    39   1
    42    13    40   1
    43    14    41   1
    44    16    42   1
    45    17    43   1
    46    18    44   1
    47    18    45   1
    48    18    46   1
    49    26    47   1
    50    27    48   1
@<TRIPOS>SUBSTRUCTURE
     1  BAX      1

