@<TRIPOS>MOLECULE
3gcs_ligand_007
    48    50
SMALL
GAST_HUCK
****
This file was generated by PARSER (from files_GN.cpp)

@<TRIPOS>ATOM
      1 C1        -18.2582   -3.9994   13.5501 C.ar        1 BAX      -0.0127
      2 C2        -19.4631   -3.3474   13.8692 C.ar        1 BAX       0.0959
      3 C3        -20.0318   -2.4572   12.9311 C.ar        1 BAX      -0.0108
      4 C4        -19.3899   -2.2212   11.7029 C.ar        1 BAX      -0.0291
      5 C13       -20.4336   -2.7596   15.9930 C.2         1 BAX       0.3148
      6 C16       -21.4719   -2.5851   18.1503 C.ar        1 BAX       0.0577
      7 C17       -22.8240   -2.6572   18.5397 C.ar        1 BAX      -0.0478
      8 C18       -23.2738   -1.9658   19.6767 C.ar        1 BAX      -0.0404
      9 C19       -22.3650   -1.2202   20.4584 C.ar        1 BAX       0.1047
     10 C20       -20.9982   -1.2105   20.1193 C.ar        1 BAX      -0.0404
     11 C21       -20.5525   -1.8824   18.9674 C.ar        1 BAX      -0.0478
     12 O22       -22.8416   -0.5241   21.5351 O.3         1 BAX      -0.2564
     13 C24       -22.9442    1.6293   20.3045 C.ar        1 BAX       0.0024
     14 C25       -22.9619    3.0303   20.3971 C.ar        1 BAX       0.0057
     15 C27       -22.8235    2.9331   22.7923 C.ar        1 BAX       0.1117
     16 C28       -22.7645    1.5144   22.7226 C.ar        1 BAX       0.0183
     17 N30       -23.0162    4.9360   24.0271 N.am        1 BAX      -0.2874
     18 C31       -23.0568    5.7470   25.1987 C.3         1 BAX       0.0193
     19 C5        -18.1807   -2.8724   11.3909 C.ar        1 BAX       0.0592
     20 C6        -17.5766   -3.7629   12.3270 C.ar        1 BAX       0.0462
     21 C7        -16.2670   -4.4292   12.0474 C.3         1 BAX       0.3715
     22 F8        -15.7865   -5.2208   13.0654 F           1 BAX      -0.2224
     23 F9        -16.3709   -5.2419   10.9438 F           1 BAX      -0.2224
     24 F10       -15.2936   -3.4861   11.8177 F           1 BAX      -0.2224
     25 CL11      -17.5010   -2.5171    9.8758 Cl          1 BAX      -0.0539
     26 N12       -20.0796   -3.6231   15.0571 N.am        1 BAX      -0.2087
     27 N14       -21.0772   -3.2569   17.0375 N.am        1 BAX      -0.2199
     28 O15       -20.1754   -1.5651   15.9065 O.2         1 BAX      -0.3813
     29 C23       -22.8269    0.8542   21.4781 C.ar        1 BAX       0.1379
     30 N26       -22.9112    3.6181   21.6199 N.ar        1 BAX      -0.2925
     31 C29       -22.8189    3.6206   23.9999 C.2         1 BAX       0.2205
     32 O32       -22.6572    3.0099   25.0504 O.2         1 BAX      -0.3791
     33 H1        -17.8632   -4.6453   14.2367 H           1 BAX       0.0706
     34 H2        -20.9236   -1.9945   13.1317 H           1 BAX       0.0758
     35 H3        -19.8167   -1.5664   11.0436 H           1 BAX       0.0670
     36 H4        -23.4993   -3.1960   17.9887 H           1 BAX       0.0480
     37 H5        -24.2640   -2.0045   19.9394 H           1 BAX       0.0520
     38 H6        -20.3298   -0.7164   20.7099 H           1 BAX       0.0520
     39 H7        -19.5556   -1.8726   18.7334 H           1 BAX       0.0480
     40 H8        -23.0199    1.1868   19.3852 H           1 BAX       0.0673
     41 H9        -23.0330    3.6083   19.5561 H           1 BAX       0.0803
     42 H10       -22.6982    0.9541   23.5767 H           1 BAX       0.0696
     43 H11       -23.1538    5.3842   23.1771 H           1 BAX       0.1844
     44 H12       -23.2395    6.7825   24.9046 H           1 BAX       0.0484
     45 H13       -22.1047    5.6936   25.7292 H           1 BAX       0.0484
     46 H14       -23.8625    5.4244   25.8597 H           1 BAX       0.0484
     47 H15       -20.2337   -4.5590   15.2610 H           1 BAX       0.2266
     48 H16       -21.3767   -4.1778   16.9631 H           1 BAX       0.2230
@<TRIPOS>BOND
     1     2     1  ar
     2     1    20  ar
     3     2     3  ar
     4    26     2   1
     5     3     4  ar
     6     4    19  ar
     7     5    26  am
     8    27     5  am
     9     5    28   2
    10     7     6  ar
    11    11     6  ar
    12     6    27   1
    13     8     7  ar
    14     9     8  ar
    15     9    10  ar
    16    12     9   1
    17    10    11  ar
    18    29    12   1
    19    14    13  ar
    20    29    13  ar
    21    30    14  ar
    22    15    16  ar
    23    15    30  ar
    24    31    15   1
    25    16    29  ar
    26    17    18   1
    27    17    31  am
    28    19    20  ar
    29    19    25   1
    30    20    21   1
    31    21    22   1
    32    21    23   1
    33    21    24   1
    34    31    32   2
    35     1    33   1
    36     3    34   1
    37     4    35   1
    38     7    36   1
    39     8    37   1
    40    10    38   1
    41    11    39   1
    42    13    40   1
    43    14    41   1
    44    16    42   1
    45    17    43   1
    46    18    44   1
    47    18    45   1
    48    18    46   1
    49    26    47   1
    50    27    48   1
@<TRIPOS>SUBSTRUCTURE
     1  BAX      1

