@<TRIPOS>MOLECULE
3gcs_ligand_025
    48    50
SMALL
GAST_HUCK
****
This file was generated by PARSER (from files_GN.cpp)

@<TRIPOS>ATOM
      1 C1        -18.0251    8.0887   22.2637 C.ar        1 BAX      -0.0127
      2 C2        -17.3398    6.9743   22.8046 C.ar        1 BAX       0.0959
      3 C3        -15.9710    7.1127   23.1115 C.ar        1 BAX      -0.0108
      4 C4        -15.2977    8.3140   22.8233 C.ar        1 BAX      -0.0291
      5 C13       -18.9527    5.2300   22.3729 C.2         1 BAX       0.3148
      6 C16       -20.5626    3.4119   22.3617 C.ar        1 BAX       0.0577
      7 C17       -20.9776    3.4975   21.0088 C.ar        1 BAX      -0.0478
      8 C18       -22.0614    2.7404   20.5362 C.ar        1 BAX      -0.0404
      9 C19       -22.7334    1.8458   21.3920 C.ar        1 BAX       0.1047
     10 C20       -22.3425    1.7652   22.7467 C.ar        1 BAX      -0.0404
     11 C21       -21.2584    2.5295   23.2226 C.ar        1 BAX      -0.0478
     12 O22       -23.7508    1.0808   20.8783 O.3         1 BAX      -0.2564
     13 C24       -24.3882   -1.1589   21.3778 C.ar        1 BAX       0.0024
     14 C25       -24.1129   -2.5367   21.3489 C.ar        1 BAX       0.0057
     15 C27       -22.0210   -2.1671   20.2277 C.ar        1 BAX       0.1117
     16 C28       -22.2827   -0.7750   20.2246 C.ar        1 BAX       0.0183
     17 N30       -20.6418   -4.0306   19.7455 N.am        1 BAX      -0.2874
     18 C31       -19.4899   -4.7064   19.2437 C.3         1 BAX       0.0193
     19 C5        -15.9819    9.3985   22.2410 C.ar        1 BAX       0.0592
     20 C6        -17.3702    9.3068   21.9572 C.ar        1 BAX       0.0462
     21 C7        -18.1256   10.4490   21.3521 C.3         1 BAX       0.3715
     22 F8        -19.4601   10.2135   21.1235 F           1 BAX      -0.2224
     23 F9        -18.0679   11.5457   22.1748 F           1 BAX      -0.2224
     24 F10       -17.5898   10.7827   20.1332 F           1 BAX      -0.2224
     25 CL11      -15.0595   10.7879   21.9226 Cl          1 BAX      -0.0539
     26 N12       -17.9618    5.7781   23.0645 N.am        1 BAX      -0.2087
     27 N14       -19.5252    4.1431   22.8806 N.am        1 BAX      -0.2199
     28 O15       -19.3476    5.7294   21.3262 O.2         1 BAX      -0.3813
     29 C23       -23.4520   -0.2595   20.8375 C.ar        1 BAX       0.1379
     30 N26       -22.9559   -2.9814   20.7963 N.ar        1 BAX      -0.2925
     31 C29       -20.8560   -2.7184   19.6986 C.2         1 BAX       0.2205
     32 O32       -20.0068   -1.9946   19.1928 O.2         1 BAX      -0.3791
     33 H1        -19.0294    8.0060   22.1055 H           1 BAX       0.0706
     34 H2        -15.4520    6.3321   23.5295 H           1 BAX       0.0758
     35 H3        -14.2968    8.3759   23.0276 H           1 BAX       0.0670
     36 H4        -20.4729    4.0861   20.3392 H           1 BAX       0.0480
     37 H5        -22.3334    2.8134   19.5489 H           1 BAX       0.0520
     38 H6        -22.8388    1.1354   23.3786 H           1 BAX       0.0520
     39 H7        -20.9911    2.4490   24.2054 H           1 BAX       0.0480
     40 H8        -25.2552   -0.8160   21.7946 H           1 BAX       0.0673
     41 H9        -24.7756   -3.2058   21.7492 H           1 BAX       0.0803
     42 H10       -21.6141   -0.1286   19.7972 H           1 BAX       0.0696
     43 H11       -21.3247   -4.5812   20.1639 H           1 BAX       0.1844
     44 H12       -19.5933   -5.7766   19.4305 H           1 BAX       0.0484
     45 H13       -18.5889   -4.3505   19.7454 H           1 BAX       0.0484
     46 H14       -19.3947   -4.5468   18.1688 H           1 BAX       0.0484
     47 H15       -17.6111    5.2502   23.8056 H           1 BAX       0.2266
     48 H16       -19.2395    3.8913   23.7748 H           1 BAX       0.2230
@<TRIPOS>BOND
     1     2     1  ar
     2     1    20  ar
     3     2     3  ar
     4    26     2   1
     5     3     4  ar
     6     4    19  ar
     7     5    26  am
     8    27     5  am
     9     5    28   2
    10     7     6  ar
    11    11     6  ar
    12     6    27   1
    13     8     7  ar
    14     9     8  ar
    15     9    10  ar
    16    12     9   1
    17    10    11  ar
    18    29    12   1
    19    14    13  ar
    20    29    13  ar
    21    30    14  ar
    22    15    16  ar
    23    15    30  ar
    24    31    15   1
    25    16    29  ar
    26    17    18   1
    27    17    31  am
    28    19    20  ar
    29    19    25   1
    30    20    21   1
    31    21    22   1
    32    21    23   1
    33    21    24   1
    34    31    32   2
    35     1    33   1
    36     3    34   1
    37     4    35   1
    38     7    36   1
    39     8    37   1
    40    10    38   1
    41    11    39   1
    42    13    40   1
    43    14    41   1
    44    16    42   1
    45    17    43   1
    46    18    44   1
    47    18    45   1
    48    18    46   1
    49    26    47   1
    50    27    48   1
@<TRIPOS>SUBSTRUCTURE
     1  BAX      1

