@<TRIPOS>MOLECULE
3gcs_ligand_000
    48    50
SMALL
GAST_HUCK
****
This file was generated by PARSER (from files_GN.cpp)

@<TRIPOS>ATOM
      1 C1        -17.0505   -6.3486   16.4635 C.ar        1 BAX      -0.0127
      2 C2        -17.9823   -6.2105   17.5142 C.ar        1 BAX       0.0959
      3 C3        -17.7313   -6.8388   18.7437 C.ar        1 BAX      -0.0108
      4 C4        -16.5660   -7.5961   18.9255 C.ar        1 BAX      -0.0291
      5 C13       -19.3682   -4.3108   17.9158 C.2         1 BAX       0.3148
      6 C16       -20.9008   -2.4574   17.8756 C.ar        1 BAX       0.0577
      7 C17       -20.2343   -1.4054   17.2310 C.ar        1 BAX      -0.0478
      8 C18       -20.6731   -0.0890   17.3950 C.ar        1 BAX      -0.0404
      9 C19       -21.8105    0.2100   18.1759 C.ar        1 BAX       0.1047
     10 C20       -22.4695   -0.8517   18.8376 C.ar        1 BAX      -0.0404
     11 C21       -22.0272   -2.1817   18.6736 C.ar        1 BAX      -0.0478
     12 O22       -22.3348    1.4793   18.3458 O.3         1 BAX      -0.2564
     13 C24       -21.2726    3.4729   17.5674 C.ar        1 BAX       0.0024
     14 C25       -21.0166    4.3779   16.5311 C.ar        1 BAX       0.0057
     15 C27       -22.4054    3.1362   15.0084 C.ar        1 BAX       0.1117
     16 C28       -22.7092    2.2213   16.0455 C.ar        1 BAX       0.0183
     17 N30       -22.4193    3.8033   12.7479 N.am        1 BAX      -0.2874
     18 C31       -22.7267    3.6976   11.3602 C.3         1 BAX       0.0193
     19 C5        -15.6205   -7.7153   17.8879 C.ar        1 BAX       0.0592
     20 C6        -15.8407   -7.0750   16.6354 C.ar        1 BAX       0.0462
     21 C7        -14.8364   -7.1528   15.5263 C.3         1 BAX       0.3715
     22 F8        -15.1592   -6.4440   14.3911 F           1 BAX      -0.2224
     23 F9        -13.6247   -6.6525   15.9439 F           1 BAX      -0.2224
     24 F10       -14.6693   -8.4563   15.1294 F           1 BAX      -0.2224
     25 CL11      -14.2446   -8.6506   18.2267 Cl          1 BAX      -0.0539
     26 N12       -19.1135   -5.4741   17.3316 N.am        1 BAX      -0.2087
     27 N14       -20.5363   -3.7524   17.6311 N.am        1 BAX      -0.2199
     28 O15       -18.5521   -3.7664   18.6511 O.2         1 BAX      -0.3813
     29 C23       -22.1303    2.3853   17.3271 C.ar        1 BAX       0.1379
     30 N26       -21.5747    4.1728   15.3129 N.ar        1 BAX      -0.2925
     31 C29       -22.8727    3.0004   13.7056 C.2         1 BAX       0.2205
     32 O32       -23.6754    2.1206   13.4138 O.2         1 BAX      -0.3791
     33 H1        -17.2508   -5.8821   15.5752 H           1 BAX       0.0706
     34 H2        -18.4056   -6.7548   19.5127 H           1 BAX       0.0758
     35 H3        -16.4124   -8.0609   19.8260 H           1 BAX       0.0670
     36 H4        -19.4438   -1.5904   16.6166 H           1 BAX       0.0480
     37 H5        -20.1742    0.6676   16.9087 H           1 BAX       0.0520
     38 H6        -23.2849   -0.6615   19.4282 H           1 BAX       0.0520
     39 H7        -22.5279   -2.9376   19.1489 H           1 BAX       0.0480
     40 H8        -20.8443    3.6020   18.4861 H           1 BAX       0.0673
     41 H9        -20.4034    5.1802   16.6812 H           1 BAX       0.0803
     42 H10       -23.3264    1.4212   15.8780 H           1 BAX       0.0696
     43 H11       -21.7901    4.4940   13.0024 H           1 BAX       0.1844
     44 H12       -22.2337    4.5098   10.8217 H           1 BAX       0.0484
     45 H13       -23.8033    3.7646   11.1921 H           1 BAX       0.0484
     46 H14       -22.3557    2.7465   10.9683 H           1 BAX       0.0484
     47 H15       -19.7293   -5.7675   16.6465 H           1 BAX       0.2266
     48 H16       -21.1722   -4.3004   17.1464 H           1 BAX       0.2230
@<TRIPOS>BOND
     1     2     1  ar
     2     1    20  ar
     3     2     3  ar
     4    26     2   1
     5     3     4  ar
     6     4    19  ar
     7     5    26  am
     8    27     5  am
     9     5    28   2
    10     7     6  ar
    11    11     6  ar
    12     6    27   1
    13     8     7  ar
    14     9     8  ar
    15     9    10  ar
    16    12     9   1
    17    10    11  ar
    18    29    12   1
    19    14    13  ar
    20    29    13  ar
    21    30    14  ar
    22    15    16  ar
    23    15    30  ar
    24    31    15   1
    25    16    29  ar
    26    17    18   1
    27    17    31  am
    28    19    20  ar
    29    19    25   1
    30    20    21   1
    31    21    22   1
    32    21    23   1
    33    21    24   1
    34    31    32   2
    35     1    33   1
    36     3    34   1
    37     4    35   1
    38     7    36   1
    39     8    37   1
    40    10    38   1
    41    11    39   1
    42    13    40   1
    43    14    41   1
    44    16    42   1
    45    17    43   1
    46    18    44   1
    47    18    45   1
    48    18    46   1
    49    26    47   1
    50    27    48   1
@<TRIPOS>SUBSTRUCTURE
     1  BAX      1

