@<TRIPOS>MOLECULE
3gcs_ligand_012
    48    50
SMALL
GAST_HUCK
****
This file was generated by PARSER (from files_GN.cpp)

@<TRIPOS>ATOM
      1 C1        -19.7836    7.8248   23.2834 C.ar        1 BAX      -0.0127
      2 C2        -19.3196    6.5385   23.6547 C.ar        1 BAX       0.0959
      3 C3        -18.1368    6.4304   24.4043 C.ar        1 BAX      -0.0108
      4 C4        -17.4015    7.5776   24.7270 C.ar        1 BAX      -0.0291
      5 C13       -20.3327    5.0288   22.0758 C.2         1 BAX       0.3148
      6 C16       -21.2665    3.2109   20.7772 C.ar        1 BAX       0.0577
      7 C17       -20.7072    3.5122   19.5073 C.ar        1 BAX      -0.0478
      8 C18       -21.1413    2.8333   18.3536 C.ar        1 BAX      -0.0404
      9 C19       -22.1604    1.8549   18.4369 C.ar        1 BAX       0.1047
     10 C20       -22.6788    1.5203   19.7040 C.ar        1 BAX      -0.0404
     11 C21       -22.2304    2.1818   20.8609 C.ar        1 BAX      -0.0478
     12 O22       -22.6327    1.1924   17.3303 O.3         1 BAX      -0.2564
     13 C24       -23.7884    3.0502   16.2492 C.ar        1 BAX       0.0024
     14 C25       -23.9516    3.8231   15.0854 C.ar        1 BAX       0.0057
     15 C27       -22.3544    2.4794   13.8916 C.ar        1 BAX       0.1117
     16 C28       -22.1708    1.6839   15.0510 C.ar        1 BAX       0.0183
     17 N30       -20.7782    1.2959   12.5590 N.am        1 BAX      -0.2874
     18 C31       -20.1016    0.9598   11.3495 C.3         1 BAX       0.0193
     19 C5        -17.8478    8.8541   24.3372 C.ar        1 BAX       0.0592
     20 C6        -19.0650    9.0020   23.6143 C.ar        1 BAX       0.0462
     21 C7        -19.5800   10.3466   23.2004 C.3         1 BAX       0.3715
     22 F8        -20.7875   10.3334   22.5400 F           1 BAX      -0.2224
     23 F9        -19.7631   11.1447   24.3029 F           1 BAX      -0.2224
     24 F10       -18.6893   10.9571   22.3517 F           1 BAX      -0.2224
     25 CL11      -16.8576   10.1643   24.7621 Cl          1 BAX      -0.0539
     26 N12       -19.9595    5.3864   23.2946 N.am        1 BAX      -0.2087
     27 N14       -20.8782    3.8273   21.9395 N.am        1 BAX      -0.2199
     28 O15       -20.1244    5.7504   21.0971 O.2         1 BAX      -0.3813
     29 C23       -22.8737    1.9793   16.2347 C.ar        1 BAX       0.1379
     30 N26       -23.2429    3.5124   13.9718 N.ar        1 BAX      -0.2925
     31 C29       -21.6889    2.2555   12.6899 C.2         1 BAX       0.2205
     32 O32       -21.9621    2.9603   11.7234 O.2         1 BAX      -0.3791
     33 H1        -20.6675    7.8948   22.7657 H           1 BAX       0.0706
     34 H2        -17.7894    5.5114   24.6803 H           1 BAX       0.0758
     35 H3        -16.5186    7.4688   25.2285 H           1 BAX       0.0670
     36 H4        -19.9600    4.2132   19.4206 H           1 BAX       0.0480
     37 H5        -20.7196    3.0790   17.4531 H           1 BAX       0.0520
     38 H6        -23.3932    0.7961   19.7806 H           1 BAX       0.0520
     39 H7        -22.6305    1.9250   21.7678 H           1 BAX       0.0480
     40 H8        -24.3012    3.2883   17.0969 H           1 BAX       0.0673
     41 H9        -24.5938    4.6182   15.0749 H           1 BAX       0.0803
     42 H10       -21.5133    0.9001   15.0550 H           1 BAX       0.0696
     43 H11       -20.5458    0.7760   13.3430 H           1 BAX       0.1844
     44 H12       -19.4518    0.1039   11.5381 H           1 BAX       0.0484
     45 H13       -19.4927    1.7988   11.0090 H           1 BAX       0.0484
     46 H14       -20.8205    0.6885   10.5740 H           1 BAX       0.0484
     47 H15       -20.0293    4.6980   23.9803 H           1 BAX       0.2266
     48 H16       -21.1087    3.3547   22.7629 H           1 BAX       0.2230
@<TRIPOS>BOND
     1     2     1  ar
     2     1    20  ar
     3     2     3  ar
     4    26     2   1
     5     3     4  ar
     6     4    19  ar
     7     5    26  am
     8    27     5  am
     9     5    28   2
    10     7     6  ar
    11    11     6  ar
    12     6    27   1
    13     8     7  ar
    14     9     8  ar
    15     9    10  ar
    16    12     9   1
    17    10    11  ar
    18    29    12   1
    19    14    13  ar
    20    29    13  ar
    21    30    14  ar
    22    15    16  ar
    23    15    30  ar
    24    31    15   1
    25    16    29  ar
    26    17    18   1
    27    17    31  am
    28    19    20  ar
    29    19    25   1
    30    20    21   1
    31    21    22   1
    32    21    23   1
    33    21    24   1
    34    31    32   2
    35     1    33   1
    36     3    34   1
    37     4    35   1
    38     7    36   1
    39     8    37   1
    40    10    38   1
    41    11    39   1
    42    13    40   1
    43    14    41   1
    44    16    42   1
    45    17    43   1
    46    18    44   1
    47    18    45   1
    48    18    46   1
    49    26    47   1
    50    27    48   1
@<TRIPOS>SUBSTRUCTURE
     1  BAX      1

