@<TRIPOS>MOLECULE
3gcs_ligand_029
    48    50
SMALL
GAST_HUCK
****
This file was generated by PARSER (from files_GN.cpp)

@<TRIPOS>ATOM
      1 C1        -22.4247   -1.8867   19.2237 C.ar        1 BAX      -0.0127
      2 C2        -21.6563   -0.9276   18.5249 C.ar        1 BAX       0.0959
      3 C3        -20.5466   -1.3717   17.7771 C.ar        1 BAX      -0.0108
      4 C4        -20.1608   -2.7197   17.8054 C.ar        1 BAX      -0.0291
      5 C13       -22.3580    1.1516   19.5409 C.2         1 BAX       0.3148
      6 C16       -22.8561    3.5022   20.0998 C.ar        1 BAX       0.0577
      7 C17       -22.9272    3.4697   21.5160 C.ar        1 BAX      -0.0478
      8 C18       -23.0722    4.6527   22.2619 C.ar        1 BAX      -0.0404
      9 C19       -23.1196    5.8993   21.6093 C.ar        1 BAX       0.1047
     10 C20       -23.1076    5.9473   20.2034 C.ar        1 BAX      -0.0404
     11 C21       -22.9853    4.7572   19.4612 C.ar        1 BAX      -0.0478
     12 O22       -23.0863    7.0734   22.3164 O.3         1 BAX      -0.2564
     13 C24       -21.8891    8.4584   23.8273 C.ar        1 BAX       0.0024
     14 C25       -20.6833    8.9208   24.3846 C.ar        1 BAX       0.0057
     15 C27       -19.4010    7.4506   22.9848 C.ar        1 BAX       0.1117
     16 C28       -20.6022    6.9769   22.4020 C.ar        1 BAX       0.0183
     17 N30       -17.0490    7.5344   23.1035 N.am        1 BAX      -0.2874
     18 C31       -15.7145    7.1217   22.8271 C.3         1 BAX       0.0193
     19 C5        -20.8914   -3.6606   18.5584 C.ar        1 BAX       0.0592
     20 C6        -22.0636   -3.2596   19.2629 C.ar        1 BAX       0.0462
     21 C7        -22.8889   -4.2423   20.0330 C.3         1 BAX       0.3715
     22 F8        -23.9913   -3.7142   20.6689 F           1 BAX      -0.2224
     23 F9        -23.3639   -5.2125   19.1839 F           1 BAX      -0.2224
     24 F10       -22.1312   -4.8362   21.0148 F           1 BAX      -0.2224
     25 CL11      -20.2978   -5.2529   18.5785 Cl          1 BAX      -0.0539
     26 N12       -21.9623    0.4064   18.5138 N.am        1 BAX      -0.2087
     27 N14       -22.5937    2.4272   19.2764 N.am        1 BAX      -0.2199
     28 O15       -22.4380    0.6727   20.6721 O.2         1 BAX      -0.3813
     29 C23       -21.8611    7.4650   22.8284 C.ar        1 BAX       0.1379
     30 N26       -19.5061    8.4082   23.9504 N.ar        1 BAX      -0.2925
     31 C29       -18.1475    6.9691   22.6184 C.2         1 BAX       0.2205
     32 O32       -18.0522    6.0209   21.8433 O.2         1 BAX      -0.3791
     33 H1        -23.2708   -1.5710   19.7042 H           1 BAX       0.0706
     34 H2        -19.9838   -0.7025   17.2447 H           1 BAX       0.0758
     35 H3        -19.3268   -3.0087   17.2841 H           1 BAX       0.0670
     36 H4        -22.8289    2.6009   22.0327 H           1 BAX       0.0480
     37 H5        -23.0831    4.6090   23.2817 H           1 BAX       0.0520
     38 H6        -23.1447    6.8465   19.7256 H           1 BAX       0.0520
     39 H7        -22.9391    4.8295   18.4406 H           1 BAX       0.0480
     40 H8        -22.7795    8.8421   24.1506 H           1 BAX       0.0673
     41 H9        -20.6896    9.6407   25.1113 H           1 BAX       0.0803
     42 H10       -20.5574    6.2721   21.6636 H           1 BAX       0.0696
     43 H11       -17.1629    8.2931   23.7012 H           1 BAX       0.1844
     44 H12       -15.0263    7.7975   23.3332 H           1 BAX       0.0484
     45 H13       -15.5170    7.1586   21.7535 H           1 BAX       0.0484
     46 H14       -15.5479    6.1070   23.1958 H           1 BAX       0.0484
     47 H15       -21.7519    0.8882   17.6911 H           1 BAX       0.2266
     48 H16       -22.5506    2.6529   18.3318 H           1 BAX       0.2230
@<TRIPOS>BOND
     1     2     1  ar
     2     1    20  ar
     3     2     3  ar
     4    26     2   1
     5     3     4  ar
     6     4    19  ar
     7     5    26  am
     8    27     5  am
     9     5    28   2
    10     7     6  ar
    11    11     6  ar
    12     6    27   1
    13     8     7  ar
    14     9     8  ar
    15     9    10  ar
    16    12     9   1
    17    10    11  ar
    18    29    12   1
    19    14    13  ar
    20    29    13  ar
    21    30    14  ar
    22    15    16  ar
    23    15    30  ar
    24    31    15   1
    25    16    29  ar
    26    17    18   1
    27    17    31  am
    28    19    20  ar
    29    19    25   1
    30    20    21   1
    31    21    22   1
    32    21    23   1
    33    21    24   1
    34    31    32   2
    35     1    33   1
    36     3    34   1
    37     4    35   1
    38     7    36   1
    39     8    37   1
    40    10    38   1
    41    11    39   1
    42    13    40   1
    43    14    41   1
    44    16    42   1
    45    17    43   1
    46    18    44   1
    47    18    45   1
    48    18    46   1
    49    26    47   1
    50    27    48   1
@<TRIPOS>SUBSTRUCTURE
     1  BAX      1

