@<TRIPOS>MOLECULE
3gcs_ligand_017
    48    50
SMALL
GAST_HUCK
****
This file was generated by PARSER (from files_GN.cpp)

@<TRIPOS>ATOM
      1 C1        -17.7881   -5.8865   18.1827 C.ar        1 BAX      -0.0127
      2 C2        -18.7534   -5.2355   17.3822 C.ar        1 BAX       0.0959
      3 C3        -18.6688   -5.3780   15.9862 C.ar        1 BAX      -0.0108
      4 C4        -17.6472   -6.1405   15.3981 C.ar        1 BAX      -0.0291
      5 C13       -19.7774   -3.5424   18.8102 C.2         1 BAX       0.3148
      6 C16       -21.1270   -1.7612   19.7454 C.ar        1 BAX       0.0577
      7 C17       -20.9983   -1.8556   21.1541 C.ar        1 BAX      -0.0478
      8 C18       -21.3395   -0.7777   21.9894 C.ar        1 BAX      -0.0404
      9 C19       -21.8011    0.4425   21.4391 C.ar        1 BAX       0.1047
     10 C20       -21.9475    0.5399   20.0339 C.ar        1 BAX      -0.0404
     11 C21       -21.6176   -0.5461   19.1996 C.ar        1 BAX      -0.0478
     12 O22       -22.1605    1.4536   22.2860 O.3         1 BAX      -0.2564
     13 C24       -21.9524    3.6465   21.3466 C.ar        1 BAX       0.0024
     14 C25       -21.2230    4.8461   21.2318 C.ar        1 BAX       0.0057
     15 C27       -19.4860    4.0045   22.6633 C.ar        1 BAX       0.1117
     16 C28       -20.2063    2.7911   22.8171 C.ar        1 BAX       0.0183
     17 N30       -17.6279    5.4016   23.0827 N.am        1 BAX      -0.2874
     18 C31       -16.3666    5.7698   23.6398 C.3         1 BAX       0.0193
     19 C5        -16.6666   -6.7538   16.1995 C.ar        1 BAX       0.0592
     20 C6        -16.7186   -6.6339   17.6187 C.ar        1 BAX       0.0462
     21 C7        -15.6745   -7.2615   18.4910 C.3         1 BAX       0.3715
     22 F8        -15.8237   -7.0356   19.8411 F           1 BAX      -0.2224
     23 F9        -15.6854   -8.6324   18.3256 F           1 BAX      -0.2224
     24 F10       -14.4227   -6.7828   18.1753 F           1 BAX      -0.2224
     25 CL11      -15.4472   -7.6046   15.3782 Cl          1 BAX      -0.0539
     26 N12       -19.7784   -4.4646   17.8559 N.am        1 BAX      -0.2087
     27 N14       -20.8744   -2.7984   18.9015 N.am        1 BAX      -0.2199
     28 O15       -18.7669   -3.2640   19.4568 O.2         1 BAX      -0.3813
     29 C23       -21.4252    2.5992   22.1292 C.ar        1 BAX       0.1379
     30 N26       -20.0349    4.9719   21.8720 N.ar        1 BAX      -0.2925
     31 C29       -18.2531    4.2432   23.2659 C.2         1 BAX       0.2205
     32 O32       -17.7409    3.3880   23.9819 O.2         1 BAX      -0.3791
     33 H1        -17.8742   -5.8316   19.1973 H           1 BAX       0.0706
     34 H2        -19.3497   -4.9164   15.3783 H           1 BAX       0.0758
     35 H3        -17.6131   -6.2184   14.3786 H           1 BAX       0.0670
     36 H4        -20.6865   -2.7302   21.5757 H           1 BAX       0.0480
     37 H5        -21.2555   -0.8784   23.0036 H           1 BAX       0.0520
     38 H6        -22.3234    1.3998   19.6168 H           1 BAX       0.0520
     39 H7        -21.7376   -0.4496   18.1871 H           1 BAX       0.0480
     40 H8        -22.8421    3.5379   20.8486 H           1 BAX       0.0673
     41 H9        -21.5739    5.6179   20.6642 H           1 BAX       0.0803
     42 H10       -19.8476    2.0308   23.3970 H           1 BAX       0.0696
     43 H11       -18.0603    6.0562   22.5128 H           1 BAX       0.1844
     44 H12       -16.1032    6.7734   23.3014 H           1 BAX       0.0484
     45 H13       -15.5923    5.0798   23.3101 H           1 BAX       0.0484
     46 H14       -16.4156    5.7738   24.7302 H           1 BAX       0.0484
     47 H15       -20.6171   -4.5633   17.3688 H           1 BAX       0.2266
     48 H16       -21.5590   -2.9638   18.2313 H           1 BAX       0.2230
@<TRIPOS>BOND
     1     2     1  ar
     2     1    20  ar
     3     2     3  ar
     4    26     2   1
     5     3     4  ar
     6     4    19  ar
     7     5    26  am
     8    27     5  am
     9     5    28   2
    10     7     6  ar
    11    11     6  ar
    12     6    27   1
    13     8     7  ar
    14     9     8  ar
    15     9    10  ar
    16    12     9   1
    17    10    11  ar
    18    29    12   1
    19    14    13  ar
    20    29    13  ar
    21    30    14  ar
    22    15    16  ar
    23    15    30  ar
    24    31    15   1
    25    16    29  ar
    26    17    18   1
    27    17    31  am
    28    19    20  ar
    29    19    25   1
    30    20    21   1
    31    21    22   1
    32    21    23   1
    33    21    24   1
    34    31    32   2
    35     1    33   1
    36     3    34   1
    37     4    35   1
    38     7    36   1
    39     8    37   1
    40    10    38   1
    41    11    39   1
    42    13    40   1
    43    14    41   1
    44    16    42   1
    45    17    43   1
    46    18    44   1
    47    18    45   1
    48    18    46   1
    49    26    47   1
    50    27    48   1
@<TRIPOS>SUBSTRUCTURE
     1  BAX      1

