@<TRIPOS>MOLECULE
3gcs_ligand_014
    48    50
SMALL
GAST_HUCK
****
This file was generated by PARSER (from files_GN.cpp)

@<TRIPOS>ATOM
      1 C1        -26.8697    5.1565   11.2533 C.ar        1 BAX      -0.0127
      2 C2        -25.5612    4.6477   11.3887 C.ar        1 BAX       0.0959
      3 C3        -24.9897    3.9443   10.3140 C.ar        1 BAX      -0.0108
      4 C4        -25.7184    3.7476    9.1309 C.ar        1 BAX      -0.0291
      5 C13       -24.1106    4.0806   13.2416 C.2         1 BAX       0.3148
      6 C16       -23.0524    3.8585   15.3961 C.ar        1 BAX       0.0577
      7 C17       -21.9829    2.9700   15.1465 C.ar        1 BAX      -0.0478
      8 C18       -21.3657    2.2789   16.2055 C.ar        1 BAX      -0.0404
      9 C19       -21.8191    2.4593   17.5287 C.ar        1 BAX       0.1047
     10 C20       -22.8543    3.3775   17.7898 C.ar        1 BAX      -0.0404
     11 C21       -23.4601    4.0747   16.7301 C.ar        1 BAX      -0.0478
     12 O22       -21.2190    1.8052   18.5704 O.3         1 BAX      -0.2564
     13 C24       -21.1689   -0.5654   18.1374 C.ar        1 BAX       0.0024
     14 C25       -21.6939   -1.8395   18.3941 C.ar        1 BAX       0.0057
     15 C27       -23.3025   -0.9355   19.9382 C.ar        1 BAX       0.1117
     16 C28       -22.7996    0.3650   19.6897 C.ar        1 BAX       0.0183
     17 N30       -24.7556   -2.4373   21.0398 N.am        1 BAX      -0.2874
     18 C31       -25.7379   -2.8395   21.9897 C.3         1 BAX       0.0193
     19 C5        -27.0320    4.2386    9.0069 C.ar        1 BAX       0.0592
     20 C6        -27.6354    4.9609   10.0792 C.ar        1 BAX       0.0462
     21 C7        -29.0382    5.4668    9.9884 C.3         1 BAX       0.3715
     22 F8        -29.4926    6.1374   11.1023 F           1 BAX      -0.2224
     23 F9        -29.1591    6.3490    8.9396 F           1 BAX      -0.2224
     24 F10       -29.9182    4.4247    9.7966 F           1 BAX      -0.2224
     25 CL11      -27.8260    3.9338    7.5325 Cl          1 BAX      -0.0539
     26 N12       -24.9085    4.8934   12.5667 N.am        1 BAX      -0.2087
     27 N14       -23.7191    4.5385   14.4229 N.am        1 BAX      -0.2199
     28 O15       -23.8558    2.9441   12.8538 O.2         1 BAX      -0.3813
     29 C23       -21.7394    0.5537   18.7762 C.ar        1 BAX       0.1379
     30 N26       -22.7176   -1.9739   19.2717 N.ar        1 BAX      -0.2925
     31 C29       -24.3200   -1.1952   20.8487 C.2         1 BAX       0.2205
     32 O32       -24.8139   -0.2809   21.4948 O.2         1 BAX      -0.3791
     33 H1        -27.2689    5.6703   12.0431 H           1 BAX       0.0706
     34 H2        -24.0308    3.5979   10.3713 H           1 BAX       0.0758
     35 H3        -25.2876    3.2295    8.3570 H           1 BAX       0.0670
     36 H4        -21.6336    2.8192   14.1967 H           1 BAX       0.0480
     37 H5        -20.5915    1.6449   16.0117 H           1 BAX       0.0520
     38 H6        -23.1728    3.5342   18.7490 H           1 BAX       0.0520
     39 H7        -24.2328    4.7166   16.9347 H           1 BAX       0.0480
     40 H8        -20.3839   -0.4541   17.4907 H           1 BAX       0.0673
     41 H9        -21.3007   -2.6601   17.9360 H           1 BAX       0.0803
     42 H10       -23.1900    1.1828   20.1702 H           1 BAX       0.0696
     43 H11       -24.3588   -3.1403   20.5038 H           1 BAX       0.1844
     44 H12       -25.8954   -3.9171   21.9194 H           1 BAX       0.0484
     45 H13       -26.6867   -2.3350   21.8020 H           1 BAX       0.0484
     46 H14       -25.3991   -2.6053   22.9993 H           1 BAX       0.0484
     47 H15       -25.1652    5.7107   13.0279 H           1 BAX       0.2266
     48 H16       -24.0808    5.3998   14.6836 H           1 BAX       0.2230
@<TRIPOS>BOND
     1     2     1  ar
     2     1    20  ar
     3     2     3  ar
     4    26     2   1
     5     3     4  ar
     6     4    19  ar
     7     5    26  am
     8    27     5  am
     9     5    28   2
    10     7     6  ar
    11    11     6  ar
    12     6    27   1
    13     8     7  ar
    14     9     8  ar
    15     9    10  ar
    16    12     9   1
    17    10    11  ar
    18    29    12   1
    19    14    13  ar
    20    29    13  ar
    21    30    14  ar
    22    15    16  ar
    23    15    30  ar
    24    31    15   1
    25    16    29  ar
    26    17    18   1
    27    17    31  am
    28    19    20  ar
    29    19    25   1
    30    20    21   1
    31    21    22   1
    32    21    23   1
    33    21    24   1
    34    31    32   2
    35     1    33   1
    36     3    34   1
    37     4    35   1
    38     7    36   1
    39     8    37   1
    40    10    38   1
    41    11    39   1
    42    13    40   1
    43    14    41   1
    44    16    42   1
    45    17    43   1
    46    18    44   1
    47    18    45   1
    48    18    46   1
    49    26    47   1
    50    27    48   1
@<TRIPOS>SUBSTRUCTURE
     1  BAX      1

