@<TRIPOS>MOLECULE
3gcs_ligand_019
    48    50
SMALL
GAST_HUCK
****
This file was generated by PARSER (from files_GN.cpp)

@<TRIPOS>ATOM
      1 C1        -11.8826    0.5981    7.4604 C.ar        1 BAX      -0.0127
      2 C2        -10.8880   -0.3380    7.8284 C.ar        1 BAX       0.0959
      3 C3         -9.6298   -0.2800    7.2007 C.ar        1 BAX      -0.0108
      4 C4         -9.3679    0.6872    6.2222 C.ar        1 BAX      -0.0291
      5 C13       -12.0330   -2.0112    9.1872 C.2         1 BAX       0.3148
      6 C16       -12.4072   -3.9413   10.6487 C.ar        1 BAX       0.0577
      7 C17       -13.7949   -3.9661   10.9264 C.ar        1 BAX      -0.0478
      8 C18       -14.3593   -5.0613   11.6177 C.ar        1 BAX      -0.0404
      9 C19       -13.5604   -6.1462   12.0390 C.ar        1 BAX       0.1047
     10 C20       -12.1973   -6.1504   11.6748 C.ar        1 BAX      -0.0404
     11 C21       -11.6230   -5.0501   11.0237 C.ar        1 BAX      -0.0478
     12 O22       -14.1590   -7.1981   12.7011 O.3         1 BAX      -0.2564
     13 C24       -12.5818   -8.6216   13.8442 C.ar        1 BAX       0.0024
     14 C25       -11.9963   -9.0575   15.0411 C.ar        1 BAX       0.0057
     15 C27       -13.4728   -7.6689   16.3306 C.ar        1 BAX       0.1117
     16 C28       -14.0340   -7.1598   15.1301 C.ar        1 BAX       0.0183
     17 N30       -13.4523   -7.9755   18.6657 N.am        1 BAX      -0.2874
     18 C31       -13.8398   -7.7742   20.0210 C.3         1 BAX       0.0193
     19 C5        -10.3547    1.6216    5.8575 C.ar        1 BAX       0.0592
     20 C6        -11.6367    1.5917    6.4754 C.ar        1 BAX       0.0462
     21 C7        -12.6902    2.5901    6.1079 C.3         1 BAX       0.3715
     22 F8        -13.8882    2.4455    6.7672 F           1 BAX      -0.2224
     23 F9        -12.2537    3.8654    6.3824 F           1 BAX      -0.2224
     24 F10       -12.9800    2.5034    4.7666 F           1 BAX      -0.2224
     25 CL11       -9.9050    2.7582    4.6781 Cl          1 BAX      -0.0539
     26 N12       -11.0033   -1.2684    8.8158 N.am        1 BAX      -0.2087
     27 N14       -11.7085   -2.9109   10.0963 N.am        1 BAX      -0.2199
     28 O15       -13.1255   -1.9742    8.6398 O.2         1 BAX      -0.3813
     29 C23       -13.5768   -7.6205   13.8748 C.ar        1 BAX       0.1379
     30 N26       -12.4665   -8.5805   16.2169 N.ar        1 BAX      -0.2925
     31 C29       -13.9165   -7.3254   17.6021 C.2         1 BAX       0.2205
     32 O32       -14.7594   -6.4477   17.7511 O.2         1 BAX      -0.3791
     33 H1        -12.7796    0.5705    7.9427 H           1 BAX       0.0706
     34 H2         -8.8862   -0.9391    7.4564 H           1 BAX       0.0758
     35 H3         -8.4379    0.7112    5.7900 H           1 BAX       0.0670
     36 H4        -14.3924   -3.1748   10.6725 H           1 BAX       0.0480
     37 H5        -15.3579   -5.0564   11.8301 H           1 BAX       0.0520
     38 H6        -11.6137   -6.9602   11.8799 H           1 BAX       0.0520
     39 H7        -10.6201   -5.0705   10.8099 H           1 BAX       0.0480
     40 H8        -12.2648   -9.0209   12.9564 H           1 BAX       0.0673
     41 H9        -11.2333   -9.7379   15.0394 H           1 BAX       0.0803
     42 H10       -14.7945   -6.4845   15.1566 H           1 BAX       0.0696
     43 H11       -12.8003   -8.6747   18.5087 H           1 BAX       0.1844
     44 H12       -13.2753   -8.4578   20.6552 H           1 BAX       0.0484
     45 H13       -14.9051   -7.9840   20.1425 H           1 BAX       0.0484
     46 H14       -13.6309   -6.7471   20.3344 H           1 BAX       0.0484
     47 H15       -10.1672   -1.4918    9.2594 H           1 BAX       0.2266
     48 H16       -10.7682   -2.8897   10.3468 H           1 BAX       0.2230
@<TRIPOS>BOND
     1     2     1  ar
     2     1    20  ar
     3     2     3  ar
     4    26     2   1
     5     3     4  ar
     6     4    19  ar
     7     5    26  am
     8    27     5  am
     9     5    28   2
    10     7     6  ar
    11    11     6  ar
    12     6    27   1
    13     8     7  ar
    14     9     8  ar
    15     9    10  ar
    16    12     9   1
    17    10    11  ar
    18    29    12   1
    19    14    13  ar
    20    29    13  ar
    21    30    14  ar
    22    15    16  ar
    23    15    30  ar
    24    31    15   1
    25    16    29  ar
    26    17    18   1
    27    17    31  am
    28    19    20  ar
    29    19    25   1
    30    20    21   1
    31    21    22   1
    32    21    23   1
    33    21    24   1
    34    31    32   2
    35     1    33   1
    36     3    34   1
    37     4    35   1
    38     7    36   1
    39     8    37   1
    40    10    38   1
    41    11    39   1
    42    13    40   1
    43    14    41   1
    44    16    42   1
    45    17    43   1
    46    18    44   1
    47    18    45   1
    48    18    46   1
    49    26    47   1
    50    27    48   1
@<TRIPOS>SUBSTRUCTURE
     1  BAX      1

