@<TRIPOS>MOLECULE
3gcs_ligand_001
    48    50
SMALL
GAST_HUCK
****
This file was generated by PARSER (from files_GN.cpp)

@<TRIPOS>ATOM
      1 C1        -20.5082   -4.9364   13.0685 C.ar        1 BAX      -0.0127
      2 C2        -19.4795   -4.2542   13.7589 C.ar        1 BAX       0.0959
      3 C3        -18.1865   -4.2533   13.1895 C.ar        1 BAX      -0.0108
      4 C4        -17.9333   -4.8887   11.9663 C.ar        1 BAX      -0.0291
      5 C13       -20.6695   -3.1528   15.6262 C.2         1 BAX       0.3148
      6 C16       -21.2098   -1.8144   17.5747 C.ar        1 BAX       0.0577
      7 C17       -22.3038   -2.4628   18.1876 C.ar        1 BAX      -0.0478
      8 C18       -23.1179   -1.7741   19.1096 C.ar        1 BAX      -0.0404
      9 C19       -22.8558   -0.4290   19.4288 C.ar        1 BAX       0.1047
     10 C20       -21.7683    0.2251   18.8161 C.ar        1 BAX      -0.0404
     11 C21       -20.9424   -0.4704   17.9088 C.ar        1 BAX      -0.0478
     12 O22       -23.7160    0.2315   20.2741 O.3         1 BAX      -0.2564
     13 C24       -22.8021   -0.4336   22.4331 C.ar        1 BAX       0.0024
     14 C25       -22.3169   -0.0355   23.6872 C.ar        1 BAX       0.0057
     15 C27       -22.6871    2.2789   23.1718 C.ar        1 BAX       0.1117
     16 C28       -23.1606    1.9077   21.8850 C.ar        1 BAX       0.0183
     17 N30       -22.1971    3.9123   24.8173 N.am        1 BAX      -0.2874
     18 C31       -22.1842    5.2154   25.3963 C.3         1 BAX       0.0193
     19 C5        -18.9690   -5.5532   11.2817 C.ar        1 BAX       0.0592
     20 C6        -20.2828   -5.5988   11.8336 C.ar        1 BAX       0.0462
     21 C7        -21.3948   -6.3222   11.1418 C.3         1 BAX       0.3715
     22 F8        -22.6075   -6.2880   11.7922 F           1 BAX      -0.2224
     23 F9        -21.6187   -5.7837    9.8968 F           1 BAX      -0.2224
     24 F10       -21.0781   -7.6519   11.0042 F           1 BAX      -0.2224
     25 CL11      -18.5533   -6.2848    9.8061 Cl          1 BAX      -0.0539
     26 N12       -19.6125   -3.5761   14.9393 N.am        1 BAX      -0.2087
     27 N14       -20.3673   -2.4313   16.6952 N.am        1 BAX      -0.2199
     28 O15       -21.8249   -3.3531   15.2854 O.2         1 BAX      -0.3813
     29 C23       -23.1979    0.5511   21.5029 C.ar        1 BAX       0.1379
     30 N26       -22.2843    1.2820   24.0101 N.ar        1 BAX      -0.2925
     31 C29       -22.6422    3.6049   23.6020 C.2         1 BAX       0.2205
     32 O32       -23.0352    4.5018   22.8696 O.2         1 BAX      -0.3791
     33 H1        -21.4340   -4.9753   13.4897 H           1 BAX       0.0706
     34 H2        -17.4160   -3.7733   13.6632 H           1 BAX       0.0758
     35 H3        -16.9890   -4.8625   11.5800 H           1 BAX       0.0670
     36 H4        -22.5020   -3.4467   17.9832 H           1 BAX       0.0480
     37 H5        -23.9077   -2.2543   19.5488 H           1 BAX       0.0520
     38 H6        -21.5758    1.2054   19.0198 H           1 BAX       0.0520
     39 H7        -20.1659    0.0219   17.4646 H           1 BAX       0.0480
     40 H8        -22.8683   -1.4260   22.1968 H           1 BAX       0.0673
     41 H9        -22.0183   -0.7334   24.3724 H           1 BAX       0.0803
     42 H10       -23.4973    2.6152   21.2293 H           1 BAX       0.0696
     43 H11       -21.8543    3.1932   25.3703 H           1 BAX       0.1844
     44 H12       -21.7766    5.1513   26.4041 H           1 BAX       0.0484
     45 H13       -23.1993    5.6083   25.4555 H           1 BAX       0.0484
     46 H14       -21.5633    5.8908   24.8076 H           1 BAX       0.0484
     47 H15       -18.7707   -3.3142   15.3414 H           1 BAX       0.2266
     48 H16       -19.4232   -2.2444   16.8119 H           1 BAX       0.2230
@<TRIPOS>BOND
     1     2     1  ar
     2     1    20  ar
     3     2     3  ar
     4    26     2   1
     5     3     4  ar
     6     4    19  ar
     7     5    26  am
     8    27     5  am
     9     5    28   2
    10     7     6  ar
    11    11     6  ar
    12     6    27   1
    13     8     7  ar
    14     9     8  ar
    15     9    10  ar
    16    12     9   1
    17    10    11  ar
    18    29    12   1
    19    14    13  ar
    20    29    13  ar
    21    30    14  ar
    22    15    16  ar
    23    15    30  ar
    24    31    15   1
    25    16    29  ar
    26    17    18   1
    27    17    31  am
    28    19    20  ar
    29    19    25   1
    30    20    21   1
    31    21    22   1
    32    21    23   1
    33    21    24   1
    34    31    32   2
    35     1    33   1
    36     3    34   1
    37     4    35   1
    38     7    36   1
    39     8    37   1
    40    10    38   1
    41    11    39   1
    42    13    40   1
    43    14    41   1
    44    16    42   1
    45    17    43   1
    46    18    44   1
    47    18    45   1
    48    18    46   1
    49    26    47   1
    50    27    48   1
@<TRIPOS>SUBSTRUCTURE
     1  BAX      1

