@<TRIPOS>MOLECULE
3gcs_ligand_013
    48    50
SMALL
GAST_HUCK
****
This file was generated by PARSER (from files_GN.cpp)

@<TRIPOS>ATOM
      1 C1        -14.9242   -8.7591   16.2501 C.ar        1 BAX      -0.0127
      2 C2        -14.9428   -7.8763   15.1474 C.ar        1 BAX       0.0959
      3 C3        -13.7587   -7.6660   14.4208 C.ar        1 BAX      -0.0108
      4 C4        -12.5544   -8.2507   14.8494 C.ar        1 BAX      -0.0291
      5 C13       -16.8368   -6.4890   15.6112 C.2         1 BAX       0.3148
      6 C16       -18.7692   -5.0180   15.6694 C.ar        1 BAX       0.0577
      7 C17       -19.1060   -4.9915   17.0465 C.ar        1 BAX      -0.0478
      8 C18       -20.0454   -4.0700   17.5412 C.ar        1 BAX      -0.0404
      9 C19       -20.7023   -3.1657   16.6723 C.ar        1 BAX       0.1047
     10 C20       -20.3679   -3.2002   15.3028 C.ar        1 BAX      -0.0404
     11 C21       -19.4288   -4.1200   14.8058 C.ar        1 BAX      -0.0478
     12 O22       -21.6843   -2.2665   17.0237 O.3         1 BAX      -0.2564
     13 C24       -23.1748   -3.3244   18.6189 C.ar        1 BAX       0.0024
     14 C25       -23.7532   -3.3079   19.9003 C.ar        1 BAX       0.0057
     15 C27       -22.6205   -1.2617   20.4463 C.ar        1 BAX       0.1117
     16 C28       -22.0104   -1.2614   19.1698 C.ar        1 BAX       0.0183
     17 N30       -22.6432   -0.4844   22.6840 N.am        1 BAX      -0.2874
     18 C31       -22.4028    0.4649   23.7174 C.3         1 BAX       0.0193
     19 C5        -12.5253   -9.0646   16.0033 C.ar        1 BAX       0.0592
     20 C6        -13.7245   -9.3535   16.7146 C.ar        1 BAX       0.0462
     21 C7        -13.7411  -10.2227   17.9359 C.3         1 BAX       0.3715
     22 F8        -14.9852  -10.4429   18.4828 F           1 BAX      -0.2224
     23 F9        -13.2350  -11.4668   17.6522 F           1 BAX      -0.2224
     24 F10       -12.9920   -9.6483   18.9323 F           1 BAX      -0.2224
     25 CL11      -11.0096   -9.6419   16.4997 Cl          1 BAX      -0.0539
     26 N12       -16.0643   -7.1898   14.7904 N.am        1 BAX      -0.2087
     27 N14       -17.8686   -5.8584   15.0710 N.am        1 BAX      -0.2199
     28 O15       -16.5411   -6.3688   16.7939 O.2         1 BAX      -0.3813
     29 C23       -22.2706   -2.3044   18.2620 C.ar        1 BAX       0.1379
     30 N26       -23.4613   -2.2911   20.7507 N.ar        1 BAX      -0.2925
     31 C29       -22.3720   -0.2762   21.3990 C.2         1 BAX       0.2205
     32 O32       -21.8414    0.7728   21.0545 O.2         1 BAX      -0.3791
     33 H1        -15.8070   -8.9456   16.7282 H           1 BAX       0.0706
     34 H2        -13.7543   -7.0406   13.6115 H           1 BAX       0.0758
     35 H3        -11.6978   -8.0458   14.3279 H           1 BAX       0.0670
     36 H4        -18.7142   -5.6639   17.7049 H           1 BAX       0.0480
     37 H5        -20.2806   -4.0992   18.5361 H           1 BAX       0.0520
     38 H6        -20.8354   -2.5713   14.6478 H           1 BAX       0.0520
     39 H7        -19.2319   -4.1327   13.7999 H           1 BAX       0.0480
     40 H8        -23.4003   -4.0753   17.9618 H           1 BAX       0.0673
     41 H9        -24.3804   -4.0558   20.2002 H           1 BAX       0.0803
     42 H10       -21.3585   -0.5177   18.8946 H           1 BAX       0.0696
     43 H11       -23.0103   -1.3478   22.9467 H           1 BAX       0.1844
     44 H12       -22.6457    0.0281   24.6871 H           1 BAX       0.0484
     45 H13       -23.0259    1.3479   23.5596 H           1 BAX       0.0484
     46 H14       -21.3531    0.7675   23.7236 H           1 BAX       0.0484
     47 H15       -16.2538   -7.1094   13.8433 H           1 BAX       0.2266
     48 H16       -17.9553   -5.9531   14.1088 H           1 BAX       0.2230
@<TRIPOS>BOND
     1     2     1  ar
     2     1    20  ar
     3     2     3  ar
     4    26     2   1
     5     3     4  ar
     6     4    19  ar
     7     5    26  am
     8    27     5  am
     9     5    28   2
    10     7     6  ar
    11    11     6  ar
    12     6    27   1
    13     8     7  ar
    14     9     8  ar
    15     9    10  ar
    16    12     9   1
    17    10    11  ar
    18    29    12   1
    19    14    13  ar
    20    29    13  ar
    21    30    14  ar
    22    15    16  ar
    23    15    30  ar
    24    31    15   1
    25    16    29  ar
    26    17    18   1
    27    17    31  am
    28    19    20  ar
    29    19    25   1
    30    20    21   1
    31    21    22   1
    32    21    23   1
    33    21    24   1
    34    31    32   2
    35     1    33   1
    36     3    34   1
    37     4    35   1
    38     7    36   1
    39     8    37   1
    40    10    38   1
    41    11    39   1
    42    13    40   1
    43    14    41   1
    44    16    42   1
    45    17    43   1
    46    18    44   1
    47    18    45   1
    48    18    46   1
    49    26    47   1
    50    27    48   1
@<TRIPOS>SUBSTRUCTURE
     1  BAX      1

