@<TRIPOS>MOLECULE
3gcs_ligand_008
    48    50
SMALL
GAST_HUCK
****
This file was generated by PARSER (from files_GN.cpp)

@<TRIPOS>ATOM
      1 C1        -22.7194    2.6425   16.8750 C.ar        1 BAX      -0.0127
      2 C2        -21.3558    2.3526   17.1104 C.ar        1 BAX       0.0959
      3 C3        -20.4820    3.3848   17.4919 C.ar        1 BAX      -0.0108
      4 C4        -20.9699    4.6865   17.6660 C.ar        1 BAX      -0.0291
      5 C13       -20.8951    0.0836   17.7307 C.2         1 BAX       0.3148
      6 C16       -20.1559   -2.1760   17.9638 C.ar        1 BAX       0.0577
      7 C17       -20.9456   -3.3169   17.6991 C.ar        1 BAX      -0.0478
      8 C18       -20.6267   -4.5451   18.2938 C.ar        1 BAX      -0.0404
      9 C19       -19.4893   -4.6696   19.1149 C.ar        1 BAX       0.1047
     10 C20       -18.7315   -3.5209   19.4180 C.ar        1 BAX      -0.0404
     11 C21       -19.0593   -2.2807   18.8427 C.ar        1 BAX      -0.0478
     12 O22       -19.1223   -5.8902   19.6179 O.3         1 BAX      -0.2564
     13 C24       -18.9392   -7.2596   17.6232 C.ar        1 BAX       0.0024
     14 C25       -18.1304   -8.0050   16.7514 C.ar        1 BAX       0.0057
     15 C27       -16.1746   -7.5151   18.0558 C.ar        1 BAX       0.1117
     16 C28       -16.9644   -6.7309   18.9411 C.ar        1 BAX       0.0183
     17 N30       -14.1954   -8.6816   17.5364 N.am        1 BAX      -0.2874
     18 C31       -12.8497   -9.1006   17.7195 C.3         1 BAX       0.0193
     19 C5        -22.3316    4.9803   17.4299 C.ar        1 BAX       0.0592
     20 C6        -23.2315    3.9577   17.0100 C.ar        1 BAX       0.0462
     21 C7        -24.6689    4.2471   16.7148 C.3         1 BAX       0.3715
     22 F8        -25.3997    3.1756   16.2651 F           1 BAX      -0.2224
     23 F9        -25.2989    4.6887   17.8460 F           1 BAX      -0.2224
     24 F10       -24.7763    5.2057   15.7421 F           1 BAX      -0.2224
     25 CL11      -22.7884    6.6006   17.6405 Cl          1 BAX      -0.0539
     26 N12       -20.8582    1.1094   16.8946 N.am        1 BAX      -0.2087
     27 N14       -20.3762   -1.0333   17.2699 N.am        1 BAX      -0.2199
     28 O15       -21.3444    0.1825   18.8734 O.2         1 BAX      -0.3813
     29 C23       -18.3531   -6.5946   18.7227 C.ar        1 BAX       0.1379
     30 N26       -16.8018   -8.1063   17.0010 N.ar        1 BAX      -0.2925
     31 C29       -14.8181   -7.7420   18.2414 C.2         1 BAX       0.2205
     32 O32       -14.1982   -7.1154   19.0946 O.2         1 BAX      -0.3791
     33 H1        -23.3308    1.8787   16.5695 H           1 BAX       0.0706
     34 H2        -19.4889    3.1858   17.6465 H           1 BAX       0.0758
     35 H3        -20.3238    5.4170   17.9776 H           1 BAX       0.0670
     36 H4        -21.7441   -3.2547   17.0658 H           1 BAX       0.0480
     37 H5        -21.2063   -5.3645   18.1088 H           1 BAX       0.0520
     38 H6        -17.9261   -3.5861   20.0481 H           1 BAX       0.0520
     39 H7        -18.4730   -1.4623   19.0338 H           1 BAX       0.0480
     40 H8        -19.9483   -7.2089   17.4632 H           1 BAX       0.0673
     41 H9        -18.5333   -8.4873   15.9470 H           1 BAX       0.0803
     42 H10       -16.5409   -6.2772   19.7552 H           1 BAX       0.0696
     43 H11       -14.7152   -9.1577   16.8652 H           1 BAX       0.1844
     44 H12       -12.6212   -9.9082   17.0248 H           1 BAX       0.0484
     45 H13       -12.7071   -9.4676   18.7390 H           1 BAX       0.0484
     46 H14       -12.1650   -8.2695   17.5336 H           1 BAX       0.0484
     47 H15       -20.3509    0.9849   16.0750 H           1 BAX       0.2266
     48 H16       -20.1124   -1.0236   16.3312 H           1 BAX       0.2230
@<TRIPOS>BOND
     1     2     1  ar
     2     1    20  ar
     3     2     3  ar
     4    26     2   1
     5     3     4  ar
     6     4    19  ar
     7     5    26  am
     8    27     5  am
     9     5    28   2
    10     7     6  ar
    11    11     6  ar
    12     6    27   1
    13     8     7  ar
    14     9     8  ar
    15     9    10  ar
    16    12     9   1
    17    10    11  ar
    18    29    12   1
    19    14    13  ar
    20    29    13  ar
    21    30    14  ar
    22    15    16  ar
    23    15    30  ar
    24    31    15   1
    25    16    29  ar
    26    17    18   1
    27    17    31  am
    28    19    20  ar
    29    19    25   1
    30    20    21   1
    31    21    22   1
    32    21    23   1
    33    21    24   1
    34    31    32   2
    35     1    33   1
    36     3    34   1
    37     4    35   1
    38     7    36   1
    39     8    37   1
    40    10    38   1
    41    11    39   1
    42    13    40   1
    43    14    41   1
    44    16    42   1
    45    17    43   1
    46    18    44   1
    47    18    45   1
    48    18    46   1
    49    26    47   1
    50    27    48   1
@<TRIPOS>SUBSTRUCTURE
     1  BAX      1

