@<TRIPOS>MOLECULE
3gcs_ligand_023
    48    50
SMALL
GAST_HUCK
****
This file was generated by PARSER (from files_GN.cpp)

@<TRIPOS>ATOM
      1 C1        -19.4999   -4.5698   17.8849 C.ar        1 BAX      -0.0127
      2 C2        -20.2625   -3.4279   17.5588 C.ar        1 BAX       0.0959
      3 C3        -20.3560   -3.0405   16.2033 C.ar        1 BAX      -0.0108
      4 C4        -19.6523   -3.7426   15.2125 C.ar        1 BAX      -0.0291
      5 C13       -21.1537   -1.4885   18.7056 C.2         1 BAX       0.3148
      6 C16       -22.1595    0.1245   20.2521 C.ar        1 BAX       0.0577
      7 C17       -22.3139    0.2901   21.6494 C.ar        1 BAX      -0.0478
      8 C18       -22.6861    1.5289   22.2037 C.ar        1 BAX      -0.0404
      9 C19       -22.9054    2.6400   21.3620 C.ar        1 BAX       0.1047
     10 C20       -22.8034    2.4764   19.9661 C.ar        1 BAX      -0.0404
     11 C21       -22.4342    1.2361   19.4170 C.ar        1 BAX      -0.0478
     12 O22       -23.2220    3.8827   21.8549 O.3         1 BAX      -0.2564
     13 C24       -22.8218    5.0765   23.8812 C.ar        1 BAX       0.0024
     14 C25       -21.9356    5.6899   24.7803 C.ar        1 BAX       0.0057
     15 C27       -20.0453    5.1110   23.4171 C.ar        1 BAX       0.1117
     16 C28       -20.9178    4.5032   22.4780 C.ar        1 BAX       0.0183
     17 N30       -17.8899    5.7235   24.1726 N.am        1 BAX      -0.2874
     18 C31       -16.4687    5.8328   24.1160 C.3         1 BAX       0.0193
     19 C5        -18.8639   -4.8605   15.5530 C.ar        1 BAX       0.0592
     20 C6        -18.7819   -5.3026   16.9049 C.ar        1 BAX       0.0462
     21 C7        -17.9509   -6.4805   17.3044 C.3         1 BAX       0.3715
     22 F8        -17.9824   -6.7943   18.6432 F           1 BAX      -0.2224
     23 F9        -18.3752   -7.6079   16.6449 F           1 BAX      -0.2224
     24 F10       -16.6294   -6.2559   17.0032 F           1 BAX      -0.2224
     25 CL11      -18.0311   -5.6200   14.2789 Cl          1 BAX      -0.0539
     26 N12       -20.9030   -2.7842   18.5813 N.am        1 BAX      -0.2087
     27 N14       -21.7821   -1.1208   19.8142 N.am        1 BAX      -0.2199
     28 O15       -20.7242   -0.6743   17.8938 O.2         1 BAX      -0.3813
     29 C23       -22.3139    4.4576   22.7216 C.ar        1 BAX       0.1379
     30 N26       -20.6069    5.6779   24.5211 N.ar        1 BAX      -0.2925
     31 C29       -18.6607    5.1310   23.2663 C.2         1 BAX       0.2205
     32 O32       -18.1381    4.5888   22.2982 O.2         1 BAX      -0.3791
     33 H1        -19.4502   -4.8495   18.8648 H           1 BAX       0.0706
     34 H2        -20.9443   -2.2516   15.9221 H           1 BAX       0.0758
     35 H3        -19.7108   -3.4250   14.2394 H           1 BAX       0.0670
     36 H4        -22.1377   -0.4919   22.2832 H           1 BAX       0.0480
     37 H5        -22.7752    1.6304   23.2171 H           1 BAX       0.0520
     38 H6        -22.9893    3.2700   19.3441 H           1 BAX       0.0520
     39 H7        -22.3768    1.1579   18.4015 H           1 BAX       0.0480
     40 H8        -23.8224    5.0731   24.0768 H           1 BAX       0.0673
     41 H9        -22.2805    6.1329   25.6357 H           1 BAX       0.0803
     42 H10       -20.5473    4.0712   21.6270 H           1 BAX       0.0696
     43 H11       -18.3261    6.1303   24.9384 H           1 BAX       0.1844
     44 H12       -16.1279    6.3921   24.9883 H           1 BAX       0.0484
     45 H13       -16.1596    6.3659   23.2146 H           1 BAX       0.0484
     46 H14       -16.0021    4.8459   24.1293 H           1 BAX       0.0484
     47 H15       -21.1332   -3.3334   19.3519 H           1 BAX       0.2266
     48 H16       -21.9653   -1.8449   20.4319 H           1 BAX       0.2230
@<TRIPOS>BOND
     1     2     1  ar
     2     1    20  ar
     3     2     3  ar
     4    26     2   1
     5     3     4  ar
     6     4    19  ar
     7     5    26  am
     8    27     5  am
     9     5    28   2
    10     7     6  ar
    11    11     6  ar
    12     6    27   1
    13     8     7  ar
    14     9     8  ar
    15     9    10  ar
    16    12     9   1
    17    10    11  ar
    18    29    12   1
    19    14    13  ar
    20    29    13  ar
    21    30    14  ar
    22    15    16  ar
    23    15    30  ar
    24    31    15   1
    25    16    29  ar
    26    17    18   1
    27    17    31  am
    28    19    20  ar
    29    19    25   1
    30    20    21   1
    31    21    22   1
    32    21    23   1
    33    21    24   1
    34    31    32   2
    35     1    33   1
    36     3    34   1
    37     4    35   1
    38     7    36   1
    39     8    37   1
    40    10    38   1
    41    11    39   1
    42    13    40   1
    43    14    41   1
    44    16    42   1
    45    17    43   1
    46    18    44   1
    47    18    45   1
    48    18    46   1
    49    26    47   1
    50    27    48   1
@<TRIPOS>SUBSTRUCTURE
     1  BAX      1

