@<TRIPOS>MOLECULE
3gcs_ligand_002
    48    50
SMALL
GAST_HUCK
****
This file was generated by PARSER (from files_GN.cpp)

@<TRIPOS>ATOM
      1 C1        -18.2875   -4.4394   13.2084 C.ar        1 BAX      -0.0127
      2 C2        -19.5730   -4.3355   13.7731 C.ar        1 BAX       0.0959
      3 C3        -20.6638   -4.8838   13.0570 C.ar        1 BAX      -0.0108
      4 C4        -20.4624   -5.5006   11.8133 C.ar        1 BAX      -0.0291
      5 C13       -20.6931   -3.2045   15.6564 C.2         1 BAX       0.3148
      6 C16       -21.2264   -1.9284   17.6321 C.ar        1 BAX       0.0577
      7 C17       -22.3343   -2.5683   18.2322 C.ar        1 BAX      -0.0478
      8 C18       -23.1544   -1.8760   19.1429 C.ar        1 BAX      -0.0404
      9 C19       -22.8917   -0.5260   19.4591 C.ar        1 BAX       0.1047
     10 C20       -21.7897    0.1196   18.8527 C.ar        1 BAX      -0.0404
     11 C21       -20.9514   -0.5849   17.9679 C.ar        1 BAX      -0.0478
     12 O22       -23.7552    0.1266   20.2890 O.3         1 BAX      -0.2564
     13 C24       -22.8145   -0.5128   22.4434 C.ar        1 BAX       0.0024
     14 C25       -22.3435   -0.0997   23.6999 C.ar        1 BAX       0.0057
     15 C27       -22.7290    2.2103   23.1560 C.ar        1 BAX       0.1117
     16 C28       -23.2039    1.8212   21.8798 C.ar        1 BAX       0.0183
     17 N30       -22.1388    3.8717   24.7335 N.am        1 BAX      -0.2874
     18 C31       -22.0624    5.1893   25.2643 C.3         1 BAX       0.0193
     19 C5        -19.1777   -5.5839   11.2536 C.ar        1 BAX       0.0592
     20 C6        -18.0511   -5.0518   11.9481 C.ar        1 BAX       0.0462
     21 C7        -16.6774   -5.1188   11.3685 C.3         1 BAX       0.3715
     22 F8        -15.6830   -4.5612   12.1413 F           1 BAX      -0.2224
     23 F9        -16.3025   -6.4250   11.1575 F           1 BAX      -0.2224
     24 F10       -16.6359   -4.4520   10.1673 F           1 BAX      -0.2224
     25 CL11      -19.0646   -6.3414    9.7390 Cl          1 BAX      -0.0539
     26 N12       -19.6649   -3.6857   14.9787 N.am        1 BAX      -0.2087
     27 N14       -20.3850   -2.5460   16.7582 N.am        1 BAX      -0.2199
     28 O15       -21.8534   -3.2891   15.2727 O.2         1 BAX      -0.3813
     29 C23       -23.2384    0.4596   21.5134 C.ar        1 BAX       0.1379
     30 N26       -22.3186    1.2214   24.0060 N.ar        1 BAX      -0.2925
     31 C29       -22.6849    3.5385   23.5670 C.2         1 BAX       0.2205
     32 O32       -23.1557    4.4190   22.8550 O.2         1 BAX      -0.3791
     33 H1        -17.4974   -4.0503   13.7274 H           1 BAX       0.0706
     34 H2        -21.6116   -4.8498   13.4254 H           1 BAX       0.0758
     35 H3        -21.2696   -5.8792   11.3149 H           1 BAX       0.0670
     36 H4        -22.5451   -3.5523   18.0263 H           1 BAX       0.0480
     37 H5        -23.9465   -2.3568   19.5743 H           1 BAX       0.0520
     38 H6        -21.5927    1.0984   19.0602 H           1 BAX       0.0520
     39 H7        -20.1592   -0.1006   17.5349 H           1 BAX       0.0480
     40 H8        -22.8532   -1.5072   22.2088 H           1 BAX       0.0673
     41 H9        -22.0347   -0.7895   24.3856 H           1 BAX       0.0803
     42 H10       -23.5292    2.5179   21.2031 H           1 BAX       0.0696
     43 H11       -21.7446    3.1641   25.2649 H           1 BAX       0.1844
     44 H12       -21.5669    5.1506   26.2353 H           1 BAX       0.0484
     45 H13       -23.0628    5.6060   25.3989 H           1 BAX       0.0484
     46 H14       -21.4842    5.8359   24.6007 H           1 BAX       0.0484
     47 H15       -18.8082   -3.5108   15.4105 H           1 BAX       0.2266
     48 H16       -19.4375   -2.4066   16.9095 H           1 BAX       0.2230
@<TRIPOS>BOND
     1     2     1  ar
     2     1    20  ar
     3     2     3  ar
     4    26     2   1
     5     3     4  ar
     6     4    19  ar
     7     5    26  am
     8    27     5  am
     9     5    28   2
    10     7     6  ar
    11    11     6  ar
    12     6    27   1
    13     8     7  ar
    14     9     8  ar
    15     9    10  ar
    16    12     9   1
    17    10    11  ar
    18    29    12   1
    19    14    13  ar
    20    29    13  ar
    21    30    14  ar
    22    15    16  ar
    23    15    30  ar
    24    31    15   1
    25    16    29  ar
    26    17    18   1
    27    17    31  am
    28    19    20  ar
    29    19    25   1
    30    20    21   1
    31    21    22   1
    32    21    23   1
    33    21    24   1
    34    31    32   2
    35     1    33   1
    36     3    34   1
    37     4    35   1
    38     7    36   1
    39     8    37   1
    40    10    38   1
    41    11    39   1
    42    13    40   1
    43    14    41   1
    44    16    42   1
    45    17    43   1
    46    18    44   1
    47    18    45   1
    48    18    46   1
    49    26    47   1
    50    27    48   1
@<TRIPOS>SUBSTRUCTURE
     1  BAX      1

