@<TRIPOS>MOLECULE
3gcs_ligand_044
    48    50
SMALL
GAST_HUCK
****
This file was generated by PARSER (from files_GN.cpp)

@<TRIPOS>ATOM
      1 C1        -15.6827   -5.7382    7.6375 C.ar        1 BAX      -0.0127
      2 C2        -14.3971   -5.8929    8.2036 C.ar        1 BAX       0.0959
      3 C3        -13.3119   -6.1725    7.3518 C.ar        1 BAX      -0.0108
      4 C4        -13.5052   -6.3230    5.9721 C.ar        1 BAX      -0.0291
      5 C13       -14.7860   -6.0813   10.5969 C.2         1 BAX       0.3148
      6 C16       -14.4848   -6.2313   13.0092 C.ar        1 BAX       0.0577
      7 C17       -15.8005   -6.3022   13.5153 C.ar        1 BAX      -0.0478
      8 C18       -16.0277   -6.6922   14.8491 C.ar        1 BAX      -0.0404
      9 C19       -14.9526   -7.0149   15.6990 C.ar        1 BAX       0.1047
     10 C20       -13.6322   -6.8714   15.2185 C.ar        1 BAX      -0.0404
     11 C21       -13.4030   -6.4958   13.8832 C.ar        1 BAX      -0.0478
     12 O22       -15.2263   -7.4728   16.9656 O.3         1 BAX      -0.2564
     13 C24       -14.6113   -9.8081   16.4353 C.ar        1 BAX       0.0024
     14 C25       -14.1337  -11.0401   16.9125 C.ar        1 BAX       0.0057
     15 C27       -13.9482  -10.1709   19.1392 C.ar        1 BAX       0.1117
     16 C28       -14.4245   -8.9134   18.6854 C.ar        1 BAX       0.0183
     17 N30       -13.1693  -11.6455   20.8106 N.am        1 BAX      -0.2874
     18 C31       -12.7977  -12.0845   22.1160 C.3         1 BAX       0.0193
     19 C5        -14.7849   -6.1575    5.4086 C.ar        1 BAX       0.0592
     20 C6        -15.9011   -5.8471    6.2374 C.ar        1 BAX       0.0462
     21 C7        -17.2547   -5.6061    5.6455 C.3         1 BAX       0.3715
     22 F8        -18.2421   -5.3081    6.5539 F           1 BAX      -0.2224
     23 F9        -17.2118   -4.5469    4.7694 F           1 BAX      -0.2224
     24 F10       -17.6815   -6.7223    4.9689 F           1 BAX      -0.2224
     25 CL11      -14.8899   -6.3274    3.7215 Cl          1 BAX      -0.0539
     26 N12       -14.1049   -5.7168    9.5242 N.am        1 BAX      -0.2087
     27 N14       -14.1556   -5.8619   11.7386 N.am        1 BAX      -0.2199
     28 O15       -15.8532   -6.6798   10.5303 O.2         1 BAX      -0.3813
     29 C23       -14.7583   -8.7188   17.3294 C.ar        1 BAX       0.1379
     30 N26       -13.8294  -11.1713   18.2229 N.ar        1 BAX      -0.2925
     31 C29       -13.6133  -10.4404   20.4626 C.2         1 BAX       0.2205
     32 O32       -13.7065   -9.5587   21.3088 O.2         1 BAX      -0.3791
     33 H1        -16.4567   -5.4974    8.2594 H           1 BAX       0.0706
     34 H2        -12.3674   -6.2693    7.7341 H           1 BAX       0.0758
     35 H3        -12.6980   -6.5292    5.3781 H           1 BAX       0.0670
     36 H4        -16.6006   -6.0673   12.9192 H           1 BAX       0.0480
     37 H5        -16.9856   -6.7658   15.1964 H           1 BAX       0.0520
     38 H6        -12.8348   -7.0952   15.8181 H           1 BAX       0.0520
     39 H7        -12.4402   -6.4439   13.5419 H           1 BAX       0.0480
     40 H8        -14.8467   -9.7170   15.4479 H           1 BAX       0.0673
     41 H9        -14.0199  -11.8344   16.2824 H           1 BAX       0.0803
     42 H10       -14.5296   -8.1311   19.3373 H           1 BAX       0.0696
     43 H11       -13.0769  -12.2993   20.0986 H           1 BAX       0.1844
     44 H12       -12.4440  -13.1132   22.0496 H           1 BAX       0.0484
     45 H13       -13.6523  -12.0568   22.7926 H           1 BAX       0.0484
     46 H14       -11.9923  -11.4696   22.5173 H           1 BAX       0.0484
     47 H15       -13.2262   -5.3451    9.7067 H           1 BAX       0.2266
     48 H16       -13.2689   -5.4815   11.6393 H           1 BAX       0.2230
@<TRIPOS>BOND
     1     2     1  ar
     2     1    20  ar
     3     2     3  ar
     4    26     2   1
     5     3     4  ar
     6     4    19  ar
     7     5    26  am
     8    27     5  am
     9     5    28   2
    10     7     6  ar
    11    11     6  ar
    12     6    27   1
    13     8     7  ar
    14     9     8  ar
    15     9    10  ar
    16    12     9   1
    17    10    11  ar
    18    29    12   1
    19    14    13  ar
    20    29    13  ar
    21    30    14  ar
    22    15    16  ar
    23    15    30  ar
    24    31    15   1
    25    16    29  ar
    26    17    18   1
    27    17    31  am
    28    19    20  ar
    29    19    25   1
    30    20    21   1
    31    21    22   1
    32    21    23   1
    33    21    24   1
    34    31    32   2
    35     1    33   1
    36     3    34   1
    37     4    35   1
    38     7    36   1
    39     8    37   1
    40    10    38   1
    41    11    39   1
    42    13    40   1
    43    14    41   1
    44    16    42   1
    45    17    43   1
    46    18    44   1
    47    18    45   1
    48    18    46   1
    49    26    47   1
    50    27    48   1
@<TRIPOS>SUBSTRUCTURE
     1  BAX      1

