@<TRIPOS>MOLECULE
3gcs_ligand_036
    48    50
SMALL
GAST_HUCK
****
This file was generated by PARSER (from files_GN.cpp)

@<TRIPOS>ATOM
      1 C1        -10.0352   -4.3573    7.0091 C.ar        1 BAX      -0.0127
      2 C2         -9.9790   -3.8240    8.3177 C.ar        1 BAX       0.0959
      3 C3         -9.3598   -2.5771    8.5179 C.ar        1 BAX      -0.0108
      4 C4         -8.8601   -1.8504    7.4304 C.ar        1 BAX      -0.0291
      5 C13       -11.6771   -4.6829    9.8220 C.2         1 BAX       0.3148
      6 C16       -12.9112   -5.7857   11.6204 C.ar        1 BAX       0.0577
      7 C17       -14.1358   -5.0739   11.6578 C.ar        1 BAX      -0.0478
      8 C18       -15.1430   -5.4448   12.5757 C.ar        1 BAX      -0.0404
      9 C19       -14.9459   -6.5240   13.4638 C.ar        1 BAX       0.1047
     10 C20       -13.7829   -7.3154   13.3221 C.ar        1 BAX      -0.0404
     11 C21       -12.7624   -6.9130   12.4537 C.ar        1 BAX      -0.0478
     12 O22       -15.8949   -6.7645   14.4345 O.3         1 BAX      -0.2564
     13 C24       -14.2661   -6.8635   16.3325 C.ar        1 BAX       0.0024
     14 C25       -14.0197   -7.2930   17.6436 C.ar        1 BAX       0.0057
     15 C27       -16.2897   -8.0231   17.8891 C.ar        1 BAX       0.1117
     16 C28       -16.5533   -7.6405   16.5479 C.ar        1 BAX       0.0183
     17 N30       -16.8771   -9.0360   19.9265 N.am        1 BAX      -0.2874
     18 C31       -17.7297   -9.6274   20.9005 C.3         1 BAX       0.0193
     19 C5         -8.9439   -2.3692    6.1234 C.ar        1 BAX       0.0592
     20 C6         -9.5208   -3.6511    5.8911 C.ar        1 BAX       0.0462
     21 C7         -9.5776   -4.2416    4.5162 C.3         1 BAX       0.3715
     22 F8        -10.1305   -5.4987    4.4431 F           1 BAX      -0.2224
     23 F9        -10.3285   -3.4431    3.6896 F           1 BAX      -0.2224
     24 F10        -8.3119   -4.3546    3.9913 F           1 BAX      -0.2224
     25 CL11       -8.3247   -1.3876    4.8823 Cl          1 BAX      -0.0539
     26 N12       -10.4296   -4.4772    9.4263 N.am        1 BAX      -0.2087
     27 N14       -11.8007   -5.4139   10.9198 N.am        1 BAX      -0.2199
     28 O15       -12.6446   -4.2303    9.2220 O.2         1 BAX      -0.3813
     29 C23       -15.5417   -7.0751   15.7411 C.ar        1 BAX       0.1379
     30 N26       -15.0248   -7.8435   18.3601 N.ar        1 BAX      -0.2925
     31 C29       -17.2467   -8.5632   18.7408 C.2         1 BAX       0.2205
     32 O32       -18.4200   -8.6173   18.3976 O.2         1 BAX      -0.3791
     33 H1        -10.4306   -5.2901    6.8844 H           1 BAX       0.0706
     34 H2         -9.2839   -2.1816    9.4593 H           1 BAX       0.0758
     35 H3         -8.4304   -0.9360    7.5998 H           1 BAX       0.0670
     36 H4        -14.2766   -4.2452   11.0774 H           1 BAX       0.0480
     37 H5        -16.0001   -4.8887   12.6357 H           1 BAX       0.0520
     38 H6        -13.6487   -8.1430   13.9082 H           1 BAX       0.0520
     39 H7        -11.8904   -7.4464   12.4431 H           1 BAX       0.0480
     40 H8        -13.5109   -6.4096   15.8118 H           1 BAX       0.0673
     41 H9        -13.0943   -7.1964   18.0670 H           1 BAX       0.0803
     42 H10       -17.4868   -7.7788   16.1460 H           1 BAX       0.0696
     43 H11       -15.9347   -8.9837   20.1535 H           1 BAX       0.1844
     44 H12       -17.1238   -9.9333   21.7535 H           1 BAX       0.0484
     45 H13       -18.2329  -10.5016   20.4861 H           1 BAX       0.0484
     46 H14       -18.4721   -8.9065   21.2425 H           1 BAX       0.0484
     47 H15        -9.7449   -4.7728   10.0454 H           1 BAX       0.2266
     48 H16       -10.9718   -5.7960   11.2530 H           1 BAX       0.2230
@<TRIPOS>BOND
     1     2     1  ar
     2     1    20  ar
     3     2     3  ar
     4    26     2   1
     5     3     4  ar
     6     4    19  ar
     7     5    26  am
     8    27     5  am
     9     5    28   2
    10     7     6  ar
    11    11     6  ar
    12     6    27   1
    13     8     7  ar
    14     9     8  ar
    15     9    10  ar
    16    12     9   1
    17    10    11  ar
    18    29    12   1
    19    14    13  ar
    20    29    13  ar
    21    30    14  ar
    22    15    16  ar
    23    15    30  ar
    24    31    15   1
    25    16    29  ar
    26    17    18   1
    27    17    31  am
    28    19    20  ar
    29    19    25   1
    30    20    21   1
    31    21    22   1
    32    21    23   1
    33    21    24   1
    34    31    32   2
    35     1    33   1
    36     3    34   1
    37     4    35   1
    38     7    36   1
    39     8    37   1
    40    10    38   1
    41    11    39   1
    42    13    40   1
    43    14    41   1
    44    16    42   1
    45    17    43   1
    46    18    44   1
    47    18    45   1
    48    18    46   1
    49    26    47   1
    50    27    48   1
@<TRIPOS>SUBSTRUCTURE
     1  BAX      1

