@<TRIPOS>MOLECULE
3gcs_ligand_004
    48    50
SMALL
GAST_HUCK
****
This file was generated by PARSER (from files_GN.cpp)

@<TRIPOS>ATOM
      1 C1        -16.5593   -7.4388   16.9443 C.ar        1 BAX      -0.0127
      2 C2        -17.3963   -6.5752   16.1982 C.ar        1 BAX       0.0959
      3 C3        -17.0854   -6.3275   14.8495 C.ar        1 BAX      -0.0108
      4 C4        -15.9367   -6.8878   14.2713 C.ar        1 BAX      -0.0291
      5 C13       -18.6326   -5.3751   17.8754 C.2         1 BAX       0.3148
      6 C16       -20.1805   -4.0581   19.2070 C.ar        1 BAX       0.0577
      7 C17       -21.4906   -4.1832   19.7173 C.ar        1 BAX      -0.0478
      8 C18       -21.9673   -3.3072   20.7108 C.ar        1 BAX      -0.0404
      9 C19       -21.1417   -2.2767   21.1974 C.ar        1 BAX       0.1047
     10 C20       -19.8213   -2.1576   20.7209 C.ar        1 BAX      -0.0404
     11 C21       -19.3457   -3.0374   19.7321 C.ar        1 BAX      -0.0478
     12 O22       -21.6798   -1.3220   22.0246 O.3         1 BAX      -0.2564
     13 C24       -22.1800    0.9612   22.4092 C.ar        1 BAX       0.0024
     14 C25       -22.5091    2.2476   21.9534 C.ar        1 BAX       0.0057
     15 C27       -22.5208    1.5027   19.6679 C.ar        1 BAX       0.1117
     16 C28       -22.2187    0.1960   20.1065 C.ar        1 BAX       0.0183
     17 N30       -22.8988    3.0706   17.9445 N.am        1 BAX      -0.2874
     18 C31       -23.0354    3.5248   16.6028 C.3         1 BAX       0.0193
     19 C5        -15.1034   -7.7451   15.0173 C.ar        1 BAX       0.0592
     20 C6        -15.4061   -8.0445   16.3765 C.ar        1 BAX       0.0462
     21 C7        -14.5492   -8.9650   17.1921 C.3         1 BAX       0.3715
     22 F8        -14.9870   -9.1799   18.4775 F           1 BAX      -0.2224
     23 F9        -14.4843  -10.2030   16.6036 F           1 BAX      -0.2224
     24 F10       -13.2806   -8.4558   17.2957 F           1 BAX      -0.2224
     25 CL11      -13.7575   -8.3868   14.2062 Cl          1 BAX      -0.0539
     26 N12       -18.5226   -6.0145   16.7207 N.am        1 BAX      -0.2087
     27 N14       -19.8202   -4.8691   18.1623 N.am        1 BAX      -0.2199
     28 O15       -17.6824   -5.2475   18.6375 O.2         1 BAX      -0.3813
     29 C23       -22.0165   -0.0897   21.4859 C.ar        1 BAX       0.1379
     30 N26       -22.6558    2.4659   20.6219 N.ar        1 BAX      -0.2925
     31 C29       -22.6669    1.8193   18.3228 C.2         1 BAX       0.2205
     32 O32       -22.5728    0.9451   17.4659 O.2         1 BAX      -0.3791
     33 H1        -16.8175   -7.6399   17.9168 H           1 BAX       0.0706
     34 H2        -17.6792   -5.7117   14.2912 H           1 BAX       0.0758
     35 H3        -15.7187   -6.6690   13.2992 H           1 BAX       0.0670
     36 H4        -22.1126   -4.9033   19.3483 H           1 BAX       0.0480
     37 H5        -22.9290   -3.3932   21.0404 H           1 BAX       0.0520
     38 H6        -19.2290   -1.3914   21.0550 H           1 BAX       0.0520
     39 H7        -18.4093   -2.8777   19.3547 H           1 BAX       0.0480
     40 H8        -22.0545    0.7956   23.4072 H           1 BAX       0.0673
     41 H9        -22.6257    3.0172   22.6119 H           1 BAX       0.0803
     42 H10       -22.1254   -0.5603   19.4226 H           1 BAX       0.0696
     43 H11       -22.9770    3.7401   18.6477 H           1 BAX       0.1844
     44 H12       -23.2222    4.5982   16.6146 H           1 BAX       0.0484
     45 H13       -23.8728    3.0267   16.1152 H           1 BAX       0.0484
     46 H14       -22.1201    3.3333   16.0439 H           1 BAX       0.0484
     47 H15       -19.3060   -6.0205   16.1495 H           1 BAX       0.2266
     48 H16       -20.5333   -5.1451   17.5647 H           1 BAX       0.2230
@<TRIPOS>BOND
     1     2     1  ar
     2     1    20  ar
     3     2     3  ar
     4    26     2   1
     5     3     4  ar
     6     4    19  ar
     7     5    26  am
     8    27     5  am
     9     5    28   2
    10     7     6  ar
    11    11     6  ar
    12     6    27   1
    13     8     7  ar
    14     9     8  ar
    15     9    10  ar
    16    12     9   1
    17    10    11  ar
    18    29    12   1
    19    14    13  ar
    20    29    13  ar
    21    30    14  ar
    22    15    16  ar
    23    15    30  ar
    24    31    15   1
    25    16    29  ar
    26    17    18   1
    27    17    31  am
    28    19    20  ar
    29    19    25   1
    30    20    21   1
    31    21    22   1
    32    21    23   1
    33    21    24   1
    34    31    32   2
    35     1    33   1
    36     3    34   1
    37     4    35   1
    38     7    36   1
    39     8    37   1
    40    10    38   1
    41    11    39   1
    42    13    40   1
    43    14    41   1
    44    16    42   1
    45    17    43   1
    46    18    44   1
    47    18    45   1
    48    18    46   1
    49    26    47   1
    50    27    48   1
@<TRIPOS>SUBSTRUCTURE
     1  BAX      1

