@<TRIPOS>MOLECULE
3ge7_ligand_001
    53    56
SMALL
GAST_HUCK
****
This file was generated by PARSER (from files_GN.cpp)

@<TRIPOS>ATOM
      1 C2         18.1077   17.4184   22.9233 C.2         1 AFQ       0.2072
      2 O16        19.1640   17.8046   23.4086 O.2         1 AFQ      -0.3875
      3 N3         17.1486   17.0394   23.7609 N.am        1 AFQ      -0.2612
      4 C4         15.9920   16.5709   23.3389 C.cat       1 AFQ       0.1758
      5 N17        15.1033   16.2001   24.1808 N.pl3       1 AFQ      -0.3393
      6 N5         15.7338   16.4742   22.0500 N.pl3       1 AFQ      -0.2634
      7 C6         16.6263   16.8795   21.1010 C.ar        1 AFQ       0.1475
      8 C10        16.3180   16.8181   19.7058 C.ar        1 AFQ       0.0887
      9 C18        14.9734   16.4143   19.1894 C.3         1 AFQ       0.0637
     10 C19        14.8924   14.9230   18.7389 C.3         1 AFQ      -0.0107
     11 N20        15.0607   14.7442   17.2756 N.4         1 AFQ       0.2306
     12 C21        13.9632   15.2466   16.4005 C.3         1 AFQ      -0.0304
     13 C22        14.4767   16.1993   15.2810 C.3         1 AFQ      -0.0008
     14 C26        14.4266   17.7087   15.6286 C.3         1 AFQ      -0.0454
     15 C25        14.3515   18.4548   14.2731 C.3         1 AFQ      -0.0526
     16 C24        14.0711   17.3783   13.1982 C.3         1 AFQ      -0.0526
     17 C23        13.6494   16.1250   13.9821 C.3         1 AFQ      -0.0454
     18 C9         17.3285   17.2193   18.7987 C.ar        1 AFQ       0.1229
     19 N11        17.3475   17.2567   17.4518 N.2         1 AFQ      -0.2121
     20 C12        18.5628   17.7164   17.0773 C.2         1 AFQ       0.2754
     21 N14        19.0276   17.9210   15.8312 N.pl3       1 AFQ      -0.2574
     22 C15        18.2798   17.6892   14.6430 C.3         1 AFQ       0.0295
     23 N13        19.2999   17.9709   18.1682 N.pl3       1 AFQ      -0.2051
     24 C8         18.5655   17.6696   19.2418 C.ar        1 AFQ       0.1282
     25 C7         18.8715   17.7746   20.6004 C.ar        1 AFQ       0.0141
     26 C1         17.9007   17.3657   21.5416 C.ar        1 AFQ       0.1119
     27 H1         17.3112   17.0928   24.7157 H           1 AFQ       0.1807
     28 H2         14.2952   15.8442   23.8732 H           1 AFQ       0.1744
     29 H3         15.2619   16.2978   25.0963 H           1 AFQ       0.1744
     30 H4         14.8713   16.1181   21.7811 H           1 AFQ       0.2162
     31 H5         14.7021   17.0754   18.3600 H           1 AFQ       0.0702
     32 H6         14.2052   16.5922   19.9481 H           1 AFQ       0.0702
     33 H7         13.9337   14.4931   19.0427 H           1 AFQ       0.0870
     34 H8         15.6703   14.3400   19.2423 H           1 AFQ       0.0870
     35 H9         15.1347   13.7366   17.0923 H           1 AFQ       0.2017
     36 H10        15.9482   15.1742   17.0038 H           1 AFQ       0.2017
     37 H11        13.1763   15.7430   16.9721 H           1 AFQ       0.0817
     38 H12        13.5103   14.3678   15.9404 H           1 AFQ       0.0817
     39 H13        15.5093   15.9312   15.0345 H           1 AFQ       0.0352
     40 H14        15.3067   18.0245   16.1960 H           1 AFQ       0.0270
     41 H15        13.5310   17.9448   16.2176 H           1 AFQ       0.0270
     42 H16        15.2959   18.9713   14.0604 H           1 AFQ       0.0265
     43 H17        13.5437   19.2010   14.2955 H           1 AFQ       0.0265
     44 H18        14.9874   17.1708   12.6357 H           1 AFQ       0.0265
     45 H19        13.2911   17.7020   12.5020 H           1 AFQ       0.0265
     46 H20        12.5765   16.1668   14.2001 H           1 AFQ       0.0270
     47 H21        13.8675   15.2142   13.4207 H           1 AFQ       0.0270
     48 H22        19.9300   18.2655   15.7342 H           1 AFQ       0.2022
     49 H23        18.9131   17.9136   13.7790 H           1 AFQ       0.0510
     50 H24        17.4026   18.3433   14.6175 H           1 AFQ       0.0510
     51 H25        17.9631   16.6429   14.5849 H           1 AFQ       0.0510
     52 H26        20.2115   18.3005   18.1777 H           1 AFQ       0.2451
     53 H27        19.7810   18.1366   20.8888 H           1 AFQ       0.0919
@<TRIPOS>BOND
     1     1     2   2
     2     1     3  am
     3     1    26   1
     4     3     4  ar
     5     4     5  ar
     6     4     6  ar
     7     6     7   1
     8     7     8  ar
     9     7    26  ar
    10     8     9   1
    11     8    18  ar
    12     9    10   1
    13    10    11   1
    14    11    12   1
    15    12    13   1
    16    13    14   1
    17    13    17   1
    18    14    15   1
    19    15    16   1
    20    16    17   1
    21    18    19   1
    22    18    24  ar
    23    19    20   2
    24    20    21   1
    25    20    23   1
    26    21    22   1
    27    23    24   1
    28    24    25  ar
    29    25    26  ar
    30     3    27   1
    31     5    28   1
    32     5    29   1
    33     6    30   1
    34     9    31   1
    35     9    32   1
    36    10    33   1
    37    10    34   1
    38    11    35   1
    39    11    36   1
    40    12    37   1
    41    12    38   1
    42    13    39   1
    43    14    40   1
    44    14    41   1
    45    15    42   1
    46    15    43   1
    47    16    44   1
    48    16    45   1
    49    17    46   1
    50    17    47   1
    51    21    48   1
    52    22    49   1
    53    22    50   1
    54    22    51   1
    55    23    52   1
    56    25    53   1
@<TRIPOS>SUBSTRUCTURE
     1  AFQ      1

