@<TRIPOS>MOLECULE
3gnw_ligand_055
    76    81
SMALL
GAST_HUCK
****
This file was generated by PARSER (from files_GN.cpp)

@<TRIPOS>ATOM
      1 O35        30.1526    2.9506   42.0531 O.2         1 XNC      -0.3687
      2 C16        29.0360    3.2300   41.6201 C.2         1 XNC       0.2510
      3 C17        28.0053    2.9986   42.5564 C.ar        1 XNC       0.1194
      4 C43        26.7919    3.7280   42.6031 C.ar        1 XNC      -0.0209
      5 C42        25.8392    3.4443   43.5951 C.ar        1 XNC      -0.0435
      6 C41        26.0951    2.4627   44.5685 C.ar        1 XNC      -0.0287
      7 C40        27.3374    1.7994   44.5570 C.ar        1 XNC       0.0301
      8 C44        27.6923    0.8281   45.6155 C.3         1 XNC      -0.0144
      9 N39        28.2173    2.0904   43.5617 N.ar        1 XNC      -0.2781
     10 N7         28.9575    3.7704   40.3766 N.am        1 XNC      -0.2078
     11 C4         27.7417    4.0339   39.7869 C.ar        1 XNC       0.0880
     12 C3         26.8417    2.9767   39.5042 C.ar        1 XNC      -0.0607
     13 C2         25.6004    3.2279   38.9079 C.ar        1 XNC      -0.0955
     14 C8         30.1258    4.2032   39.6086 C.3         1 XNC       0.1162
     15 C9         30.4275    5.5946   39.9823 C.2         1 XNC       0.0894
     16 S12        32.0395    5.8987   40.5168 S.o2        1 XNC      -0.0239
     17 O32        33.0808    5.4296   39.4044 O.2         1 XNC      -0.1768
     18 O33        32.3364    5.0461   41.8248 O.2         1 XNC      -0.1768
     19 C13        32.2957    7.6374   40.8988 C.3         1 XNC       0.0705
     20 C14        30.9426    8.3280   41.2591 C.3         1 XNC      -0.0050
     21 C37        30.4081    7.8698   42.6546 C.3         1 XNC      -0.0565
     22 C38        31.1817    9.8718   41.3107 C.3         1 XNC      -0.0565
     23 C15        29.9004    8.0052   40.1257 C.3         1 XNC       0.0036
     24 C10        29.5075    6.5948   39.9558 C.2         1 XNC       0.0422
     25 N11        28.2172    6.4494   39.6027 N.pl3       1 XNC      -0.2908
     26 C5         27.4012    5.3701   39.4346 C.ar        1 XNC       0.1100
     27 C6         26.1302    5.6065   38.8625 C.ar        1 XNC       0.0976
     28 O36        25.7391    6.8623   38.4965 O.3         1 XNC      -0.3423
     29 C1         25.2367    4.5496   38.5992 C.ar        1 XNC      -0.0580
     30 C18        30.0910    3.8752   38.1316 C.ar        1 XNC       0.0130
     31 C23        30.2074    2.5187   37.7033 C.ar        1 XNC       0.1283
     32 F34        30.3453    1.5399   38.5681 F           1 XNC      -0.1917
     33 C22        30.1908    2.1731   36.3454 C.ar        1 XNC      -0.0061
     34 C21        29.9901    3.1642   35.3622 C.ar        1 XNC       0.0849
     35 C20        29.8741    4.5128   35.7529 C.ar        1 XNC      -0.0435
     36 C19        29.9211    4.8631   37.1128 C.ar        1 XNC      -0.0671
     37 O24        30.0106    2.8376   34.0338 O.3         1 XNC      -0.3110
     38 C25        28.9408    1.9765   33.5636 C.3         1 XNC       0.1027
     39 C26        27.6389    2.6725   33.3682 C.ar        1 XNC      -0.0131
     40 C31        26.4147    1.9895   33.5872 C.ar        1 XNC      -0.0578
     41 C30        25.1877    2.6432   33.3684 C.ar        1 XNC      -0.0685
     42 C29        25.1670    3.9758   32.9160 C.ar        1 XNC      -0.0687
     43 C28        26.3716    4.6547   32.6744 C.ar        1 XNC      -0.0685
     44 C27        27.6025    4.0064   32.8984 C.ar        1 XNC      -0.0578
     45 H1         26.6000    4.4948   41.9535 H           1 XNC       0.0705
     46 H2         24.9676    3.9766   43.6257 H           1 XNC       0.0729
     47 H3         25.4004    2.2746   45.2939 H           1 XNC       0.0684
     48 H4         28.6818    0.4050   45.4365 H           1 XNC       0.0421
     49 H5         26.9605    0.0218   45.6404 H           1 XNC       0.0421
     50 H6         27.7008    1.3291   46.5811 H           1 XNC       0.0421
     51 H7         27.0992    2.0087   39.7382 H           1 XNC       0.0382
     52 H8         24.9610    2.4675   38.7124 H           1 XNC       0.0451
     53 H9         30.9760    3.5996   39.9396 H           1 XNC       0.0812
     54 H10        32.7318    8.0922   40.0085 H           1 XNC       0.0503
     55 H11        33.0152    7.7174   41.7137 H           1 XNC       0.0503
     56 H12        29.4603    8.3653   42.8836 H           1 XNC       0.0237
     57 H13        31.1226    8.1172   43.4427 H           1 XNC       0.0237
     58 H14        30.2361    6.7928   42.6882 H           1 XNC       0.0237
     59 H15        31.5321   10.2431   40.3446 H           1 XNC       0.0237
     60 H16        31.9312   10.1193   42.0677 H           1 XNC       0.0237
     61 H17        30.2536   10.3937   41.5606 H           1 XNC       0.0237
     62 H18        30.3197    8.3242   39.1628 H           1 XNC       0.0444
     63 H19        29.0178    8.6378   40.2999 H           1 XNC       0.0444
     64 H20        27.7680    7.2851   39.4320 H           1 XNC       0.2009
     65 H21        26.3162    7.0881   37.7228 H           1 XNC       0.2432
     66 H22        24.3205    4.7437   38.1869 H           1 XNC       0.0389
     67 H23        30.3249    1.2030   36.0553 H           1 XNC       0.0510
     68 H24        29.7579    5.2538   35.0405 H           1 XNC       0.0491
     69 H25        29.8076    5.8482   37.3498 H           1 XNC       0.0520
     70 H26        28.8318    1.0972   34.2142 H           1 XNC       0.0776
     71 H27        29.2538    1.6109   32.5857 H           1 XNC       0.0776
     72 H28        26.4100    1.0076   33.8844 H           1 XNC       0.0557
     73 H29        24.3112    2.1432   33.5332 H           1 XNC       0.0599
     74 H30        24.2733    4.4461   32.7535 H           1 XNC       0.0559
     75 H31        26.3590    5.6174   32.3312 H           1 XNC       0.0599
     76 H32        28.4727    4.5155   32.7100 H           1 XNC       0.0557
@<TRIPOS>BOND
     1     1     2   2
     2     2     3   1
     3     2    10  am
     4     3     4  ar
     5     3     9  ar
     6     4     5  ar
     7     5     6  ar
     8     6     7  ar
     9     7     8   1
    10     7     9  ar
    11    10    11   1
    12    10    14   1
    13    11    12  ar
    14    11    26  ar
    15    12    13  ar
    16    13    29  ar
    17    14    15   1
    18    14    30   1
    19    15    16   1
    20    15    24   2
    21    16    17   2
    22    16    18   2
    23    16    19   1
    24    19    20   1
    25    20    21   1
    26    20    22   1
    27    20    23   1
    28    23    24   1
    29    24    25   1
    30    25    26   1
    31    26    27  ar
    32    27    28   1
    33    27    29  ar
    34    30    31  ar
    35    30    36  ar
    36    31    32   1
    37    31    33  ar
    38    33    34  ar
    39    34    35  ar
    40    34    37   1
    41    35    36  ar
    42    37    38   1
    43    38    39   1
    44    39    40  ar
    45    39    44  ar
    46    40    41  ar
    47    41    42  ar
    48    42    43  ar
    49    43    44  ar
    50     4    45   1
    51     5    46   1
    52     6    47   1
    53     8    48   1
    54     8    49   1
    55     8    50   1
    56    12    51   1
    57    13    52   1
    58    14    53   1
    59    19    54   1
    60    19    55   1
    61    21    56   1
    62    21    57   1
    63    21    58   1
    64    22    59   1
    65    22    60   1
    66    22    61   1
    67    23    62   1
    68    23    63   1
    69    25    64   1
    70    28    65   1
    71    29    66   1
    72    33    67   1
    73    35    68   1
    74    36    69   1
    75    38    70   1
    76    38    71   1
    77    40    72   1
    78    41    73   1
    79    42    74   1
    80    43    75   1
    81    44    76   1
@<TRIPOS>SUBSTRUCTURE
     1  XNC      2

