@<TRIPOS>MOLECULE
3gnw_ligand_010
    76    81
SMALL
GAST_HUCK
****
This file was generated by PARSER (from files_GN.cpp)

@<TRIPOS>ATOM
      1 O35        28.2796    1.2418   44.2300 O.2         1 XNC      -0.3687
      2 C16        27.3047    1.0126   43.5207 C.2         1 XNC       0.2510
      3 C17        26.1183    1.0311   44.2237 C.ar        1 XNC       0.1194
      4 C43        25.5570    2.2631   44.6268 C.ar        1 XNC      -0.0209
      5 C42        24.3461    2.2614   45.3458 C.ar        1 XNC      -0.0435
      6 C41        23.7371    1.0435   45.6909 C.ar        1 XNC      -0.0287
      7 C40        24.3522   -0.1660   45.3096 C.ar        1 XNC       0.0301
      8 C44        23.7604   -1.4586   45.6921 C.3         1 XNC      -0.0144
      9 N39        25.5052   -0.1304   44.5820 N.ar        1 XNC      -0.2781
     10 N7         27.4086    0.9762   42.1697 N.am        1 XNC      -0.2078
     11 C4         28.5694    1.4346   41.5586 C.ar        1 XNC       0.0880
     12 C3         29.0487    2.7358   41.8722 C.ar        1 XNC      -0.0607
     13 C2         30.1983    3.2550   41.2607 C.ar        1 XNC      -0.0955
     14 C8         26.3372    0.5142   41.2749 C.3         1 XNC       0.1162
     15 C9         26.6064   -0.8902   40.8929 C.2         1 XNC       0.0894
     16 S12        25.3355   -2.0266   41.1823 S.o2        1 XNC      -0.0239
     17 O32        23.9402   -1.5129   40.6184 O.2         1 XNC      -0.1768
     18 O33        25.1916   -2.2252   42.7559 O.2         1 XNC      -0.1768
     19 C13        25.7272   -3.6408   40.4728 C.3         1 XNC       0.0705
     20 C14        27.2681   -3.8667   40.4562 C.3         1 XNC      -0.0050
     21 C37        27.8400   -4.0526   41.8989 C.3         1 XNC      -0.0565
     22 C38        27.5695   -5.1751   39.6538 C.3         1 XNC      -0.0565
     23 C15        27.9477   -2.6475   39.7447 C.3         1 XNC       0.0036
     24 C10        27.7760   -1.3084   40.3412 C.2         1 XNC       0.0422
     25 N11        28.8303   -0.5182   40.0884 N.pl3       1 XNC      -0.2908
     26 C5         29.2349    0.6935   40.5435 C.ar        1 XNC       0.1100
     27 C6         30.3982    1.2315   39.9384 C.ar        1 XNC       0.0976
     28 O36        31.0979    0.5234   39.0160 O.3         1 XNC      -0.3423
     29 C1         30.8846    2.4979   40.3069 C.ar        1 XNC      -0.0580
     30 C18        26.0569    1.4970   40.1538 C.ar        1 XNC       0.0130
     31 C23        25.8134    2.8652   40.4636 C.ar        1 XNC       0.1283
     32 F34        25.7263    3.2875   41.6971 F           1 XNC      -0.1917
     33 C22        25.7054    3.8374   39.4512 C.ar        1 XNC      -0.0061
     34 C21        25.7937    3.4593   38.0944 C.ar        1 XNC       0.0849
     35 C20        25.9570    2.1047   37.7638 C.ar        1 XNC      -0.0435
     36 C19        26.0733    1.1401   38.7781 C.ar        1 XNC      -0.0671
     37 O24        25.9071    4.3851   37.0923 O.3         1 XNC      -0.3110
     38 C25        24.8689    5.3684   36.9090 C.3         1 XNC       0.1027
     39 C26        25.5535    6.6808   36.7921 C.ar        1 XNC      -0.0131
     40 C31        26.1189    7.2860   37.9416 C.ar        1 XNC      -0.0578
     41 C30        26.8410    8.4892   37.8416 C.ar        1 XNC      -0.0685
     42 C29        27.0054    9.1077   36.5894 C.ar        1 XNC      -0.0687
     43 C28        26.4291    8.5301   35.4405 C.ar        1 XNC      -0.0685
     44 C27        25.7050    7.3264   35.5426 C.ar        1 XNC      -0.0578
     45 H1         26.0123    3.1527   44.4083 H           1 XNC       0.0705
     46 H2         23.9248    3.1475   45.6362 H           1 XNC       0.0729
     47 H3         22.8679    1.0487   46.2265 H           1 XNC       0.0684
     48 H4         24.3717   -2.2958   45.3372 H           1 XNC       0.0421
     49 H5         22.7648   -1.5473   45.2508 H           1 XNC       0.0421
     50 H6         23.6798   -1.5148   46.7828 H           1 XNC       0.0421
     51 H7         28.5489    3.3208   42.5456 H           1 XNC       0.0382
     52 H8         30.5393    4.1879   41.5105 H           1 XNC       0.0451
     53 H9         25.3927    0.5182   41.8235 H           1 XNC       0.0812
     54 H10        25.3267   -3.6585   39.4549 H           1 XNC       0.0503
     55 H11        25.2263   -4.4254   41.0475 H           1 XNC       0.0503
     56 H12        28.9163   -4.2293   41.8612 H           1 XNC       0.0237
     57 H13        27.3620   -4.8962   42.4000 H           1 XNC       0.0237
     58 H14        27.6747   -3.1648   42.5043 H           1 XNC       0.0237
     59 H15        27.2062   -5.0931   38.6280 H           1 XNC       0.0237
     60 H16        27.0823   -6.0340   40.1185 H           1 XNC       0.0237
     61 H17        28.6427   -5.3684   39.6212 H           1 XNC       0.0237
     62 H18        27.5690   -2.5777   38.7186 H           1 XNC       0.0444
     63 H19        29.0180   -2.8830   39.6602 H           1 XNC       0.0444
     64 H20        29.4418   -0.9019   39.4387 H           1 XNC       0.2009
     65 H21        31.5521   -0.1533   39.5548 H           1 XNC       0.2432
     66 H22        31.7290    2.8695   39.8597 H           1 XNC       0.0389
     67 H23        25.5876    4.8228   39.7003 H           1 XNC       0.0510
     68 H24        26.0301    1.8248   36.7803 H           1 XNC       0.0491
     69 H25        26.2135    0.1721   38.4940 H           1 XNC       0.0520
     70 H26        24.1455    5.4137   37.7316 H           1 XNC       0.0776
     71 H27        24.3177    5.1164   35.9943 H           1 XNC       0.0776
     72 H28        26.0168    6.8477   38.8611 H           1 XNC       0.0557
     73 H29        27.2472    8.9145   38.6822 H           1 XNC       0.0599
     74 H30        27.5411    9.9760   36.5156 H           1 XNC       0.0559
     75 H31        26.5510    8.9843   34.5329 H           1 XNC       0.0599
     76 H32        25.3007    6.9201   34.6946 H           1 XNC       0.0557
@<TRIPOS>BOND
     1     1     2   2
     2     2     3   1
     3     2    10  am
     4     3     4  ar
     5     3     9  ar
     6     4     5  ar
     7     5     6  ar
     8     6     7  ar
     9     7     8   1
    10     7     9  ar
    11    10    11   1
    12    10    14   1
    13    11    12  ar
    14    11    26  ar
    15    12    13  ar
    16    13    29  ar
    17    14    15   1
    18    14    30   1
    19    15    16   1
    20    15    24   2
    21    16    17   2
    22    16    18   2
    23    16    19   1
    24    19    20   1
    25    20    21   1
    26    20    22   1
    27    20    23   1
    28    23    24   1
    29    24    25   1
    30    25    26   1
    31    26    27  ar
    32    27    28   1
    33    27    29  ar
    34    30    31  ar
    35    30    36  ar
    36    31    32   1
    37    31    33  ar
    38    33    34  ar
    39    34    35  ar
    40    34    37   1
    41    35    36  ar
    42    37    38   1
    43    38    39   1
    44    39    40  ar
    45    39    44  ar
    46    40    41  ar
    47    41    42  ar
    48    42    43  ar
    49    43    44  ar
    50     4    45   1
    51     5    46   1
    52     6    47   1
    53     8    48   1
    54     8    49   1
    55     8    50   1
    56    12    51   1
    57    13    52   1
    58    14    53   1
    59    19    54   1
    60    19    55   1
    61    21    56   1
    62    21    57   1
    63    21    58   1
    64    22    59   1
    65    22    60   1
    66    22    61   1
    67    23    62   1
    68    23    63   1
    69    25    64   1
    70    28    65   1
    71    29    66   1
    72    33    67   1
    73    35    68   1
    74    36    69   1
    75    38    70   1
    76    38    71   1
    77    40    72   1
    78    41    73   1
    79    42    74   1
    80    43    75   1
    81    44    76   1
@<TRIPOS>SUBSTRUCTURE
     1  XNC      2

