@<TRIPOS>MOLECULE
3gnw_ligand_022
    76    81
SMALL
GAST_HUCK
****
This file was generated by PARSER (from files_GN.cpp)

@<TRIPOS>ATOM
      1 O35        31.3145    0.9048   38.3810 O.2         1 XNC      -0.3687
      2 C16        30.7919    2.0101   38.2651 C.2         1 XNC       0.2510
      3 C17        30.8601    2.7744   39.4162 C.ar        1 XNC       0.1194
      4 C43        30.4427    2.2784   40.6737 C.ar        1 XNC      -0.0209
      5 C42        30.5137    3.1064   41.8026 C.ar        1 XNC      -0.0435
      6 C41        31.0756    4.3939   41.6989 C.ar        1 XNC      -0.0287
      7 C40        31.5658    4.8295   40.4468 C.ar        1 XNC       0.0301
      8 C44        32.2539    6.1251   40.3198 C.3         1 XNC      -0.0144
      9 N39        31.4183    4.0163   39.3634 N.ar        1 XNC      -0.2781
     10 N7         30.2308    2.3760   37.0840 N.am        1 XNC      -0.2078
     11 C4         30.4978    1.6285   35.9465 C.ar        1 XNC       0.0880
     12 C3         31.8463    1.4052   35.5714 C.ar        1 XNC      -0.0607
     13 C2         32.1840    0.6904   34.4101 C.ar        1 XNC      -0.0955
     14 C8         29.1776    3.4144   36.9904 C.3         1 XNC       0.1162
     15 C9         27.8951    2.7146   37.2019 C.2         1 XNC       0.0894
     16 S12        26.9325    3.1612   38.5707 S.o2        1 XNC      -0.0239
     17 O32        26.4907    4.6911   38.5936 O.2         1 XNC      -0.1768
     18 O33        27.7104    2.9490   39.9372 O.2         1 XNC      -0.1768
     19 C13        25.4606    2.1315   38.7247 C.3         1 XNC       0.0705
     20 C14        25.0072    1.5385   37.3553 C.3         1 XNC      -0.0050
     21 C37        23.9533    0.4154   37.6345 C.3         1 XNC      -0.0565
     22 C38        24.3263    2.6172   36.4581 C.3         1 XNC      -0.0565
     23 C15        26.2471    0.9056   36.6311 C.3         1 XNC       0.0036
     24 C10        27.4455    1.7214   36.3764 C.2         1 XNC       0.0422
     25 N11        28.1393    1.2591   35.3244 N.pl3       1 XNC      -0.2908
     26 C5         29.4642    1.1368   35.0900 C.ar        1 XNC       0.1100
     27 C6         29.8212    0.4126   33.9266 C.ar        1 XNC       0.0976
     28 O36        28.8699   -0.1209   33.1145 O.3         1 XNC      -0.3423
     29 C1         31.1613    0.1938   33.5850 C.ar        1 XNC      -0.0580
     30 C18        29.2493    4.3585   35.7967 C.ar        1 XNC       0.0130
     31 C23        28.1531    5.1734   35.3880 C.ar        1 XNC       0.1283
     32 F34        27.0107    5.1795   36.0041 F           1 XNC      -0.1917
     33 C22        28.2422    6.0468   34.2900 C.ar        1 XNC      -0.0061
     34 C21        29.4385    6.1515   33.5678 C.ar        1 XNC       0.0849
     35 C20        30.5569    5.4032   33.9703 C.ar        1 XNC      -0.0435
     36 C19        30.4689    4.5683   35.0994 C.ar        1 XNC      -0.0671
     37 O24        29.4839    6.9402   32.4489 O.3         1 XNC      -0.3110
     38 C25        29.6652    8.3547   32.6710 C.3         1 XNC       0.1027
     39 C26        28.6431    9.1829   31.9758 C.ar        1 XNC      -0.0131
     40 C31        28.8684   10.5722   31.8224 C.ar        1 XNC      -0.0578
     41 C30        27.9149   11.3875   31.1893 C.ar        1 XNC      -0.0685
     42 C29        26.7124   10.8383   30.7162 C.ar        1 XNC      -0.0687
     43 C28        26.4621    9.4617   30.8759 C.ar        1 XNC      -0.0685
     44 C27        27.4240    8.6407   31.4977 C.ar        1 XNC      -0.0578
     45 H1         30.0449    1.3371   40.7606 H           1 XNC       0.0705
     46 H2         30.1560    2.7814   42.6999 H           1 XNC       0.0729
     47 H3         31.1419    4.9864   42.5274 H           1 XNC       0.0684
     48 H4         32.6382    6.2677   39.3056 H           1 XNC       0.0421
     49 H5         33.0989    6.1552   41.0114 H           1 XNC       0.0421
     50 H6         31.5707    6.9412   40.5546 H           1 XNC       0.0421
     51 H7         32.6054    1.7933   36.1359 H           1 XNC       0.0382
     52 H8         33.1586    0.5595   34.1510 H           1 XNC       0.0451
     53 H9         29.3091    4.1175   37.8140 H           1 XNC       0.0812
     54 H10        24.6617    2.7198   39.1776 H           1 XNC       0.0503
     55 H11        25.7139    1.3204   39.4104 H           1 XNC       0.0503
     56 H12        23.6167   -0.0502   36.7036 H           1 XNC       0.0237
     57 H13        23.0750    0.8242   38.1453 H           1 XNC       0.0237
     58 H14        24.3716   -0.3727   38.2689 H           1 XNC       0.0237
     59 H15        25.0315    3.4217   36.2115 H           1 XNC       0.0237
     60 H16        23.4771    3.0672   36.9704 H           1 XNC       0.0237
     61 H17        23.9817    2.1821   35.5211 H           1 XNC       0.0237
     62 H18        25.8747    0.4787   35.6919 H           1 XNC       0.0444
     63 H19        26.6018    0.0596   37.2265 H           1 XNC       0.0444
     64 H20        27.5863    0.8016   34.6714 H           1 XNC       0.2009
     65 H21        29.0994   -1.0696   33.0468 H           1 XNC       0.2432
     66 H22        31.4040   -0.3054   32.7273 H           1 XNC       0.0389
     67 H23        27.4326    6.6127   34.0129 H           1 XNC       0.0510
     68 H24        31.4301    5.4839   33.4456 H           1 XNC       0.0491
     69 H25        31.3321    4.0967   35.4057 H           1 XNC       0.0520
     70 H26        30.6476    8.5951   32.2614 H           1 XNC       0.0776
     71 H27        29.6692    8.6435   33.7288 H           1 XNC       0.0776
     72 H28        29.7339   10.9979   32.1686 H           1 XNC       0.0557
     73 H29        28.0946   12.3902   31.0745 H           1 XNC       0.0599
     74 H30        26.0175   11.4312   30.2543 H           1 XNC       0.0559
     75 H31        25.5850    9.0603   30.5428 H           1 XNC       0.0599
     76 H32        27.2139    7.6479   31.6021 H           1 XNC       0.0557
@<TRIPOS>BOND
     1     1     2   2
     2     2     3   1
     3     2    10  am
     4     3     4  ar
     5     3     9  ar
     6     4     5  ar
     7     5     6  ar
     8     6     7  ar
     9     7     8   1
    10     7     9  ar
    11    10    11   1
    12    10    14   1
    13    11    12  ar
    14    11    26  ar
    15    12    13  ar
    16    13    29  ar
    17    14    15   1
    18    14    30   1
    19    15    16   1
    20    15    24   2
    21    16    17   2
    22    16    18   2
    23    16    19   1
    24    19    20   1
    25    20    21   1
    26    20    22   1
    27    20    23   1
    28    23    24   1
    29    24    25   1
    30    25    26   1
    31    26    27  ar
    32    27    28   1
    33    27    29  ar
    34    30    31  ar
    35    30    36  ar
    36    31    32   1
    37    31    33  ar
    38    33    34  ar
    39    34    35  ar
    40    34    37   1
    41    35    36  ar
    42    37    38   1
    43    38    39   1
    44    39    40  ar
    45    39    44  ar
    46    40    41  ar
    47    41    42  ar
    48    42    43  ar
    49    43    44  ar
    50     4    45   1
    51     5    46   1
    52     6    47   1
    53     8    48   1
    54     8    49   1
    55     8    50   1
    56    12    51   1
    57    13    52   1
    58    14    53   1
    59    19    54   1
    60    19    55   1
    61    21    56   1
    62    21    57   1
    63    21    58   1
    64    22    59   1
    65    22    60   1
    66    22    61   1
    67    23    62   1
    68    23    63   1
    69    25    64   1
    70    28    65   1
    71    29    66   1
    72    33    67   1
    73    35    68   1
    74    36    69   1
    75    38    70   1
    76    38    71   1
    77    40    72   1
    78    41    73   1
    79    42    74   1
    80    43    75   1
    81    44    76   1
@<TRIPOS>SUBSTRUCTURE
     1  XNC      2

