@<TRIPOS>MOLECULE
3gnw_ligand_056
    76    81
SMALL
GAST_HUCK
****
This file was generated by PARSER (from files_GN.cpp)

@<TRIPOS>ATOM
      1 O35        35.8631    2.4052   39.6226 O.2         1 XNC      -0.3687
      2 C16        36.1233    3.0191   40.6541 C.2         1 XNC       0.2510
      3 C17        35.7998    4.3658   40.5766 C.ar        1 XNC       0.1194
      4 C43        36.2858    5.1949   39.5375 C.ar        1 XNC      -0.0209
      5 C42        35.9157    6.5512   39.5069 C.ar        1 XNC      -0.0435
      6 C41        35.0531    7.0676   40.4884 C.ar        1 XNC      -0.0287
      7 C40        34.5608    6.2092   41.4929 C.ar        1 XNC       0.0301
      8 C44        33.6230    6.6596   42.5396 C.3         1 XNC      -0.0144
      9 N39        34.9510    4.9074   41.4915 N.ar        1 XNC      -0.2781
     10 N7         36.6982    2.3889   41.7106 N.am        1 XNC      -0.2078
     11 C4         36.9749    1.0473   41.5883 C.ar        1 XNC       0.0880
     12 C3         35.9111    0.1146   41.5714 C.ar        1 XNC      -0.0607
     13 C2         36.1681   -1.2545   41.3927 C.ar        1 XNC      -0.0955
     14 C8         37.3254    3.0790   42.8435 C.3         1 XNC       0.1162
     15 C9         38.6961    3.4984   42.4821 C.2         1 XNC       0.0894
     16 S12        39.0836    5.1517   42.8161 S.o2        1 XNC      -0.0239
     17 O32        38.9103    5.4843   44.3616 O.2         1 XNC      -0.1768
     18 O33        38.0889    6.0999   42.0167 O.2         1 XNC      -0.1768
     19 C13        40.7511    5.5685   42.2779 C.3         1 XNC       0.0705
     20 C14        41.2257    4.6100   41.1410 C.3         1 XNC      -0.0050
     21 C37        40.4882    4.9035   39.7936 C.3         1 XNC      -0.0565
     22 C38        42.7548    4.8436   40.9149 C.3         1 XNC      -0.0565
     23 C15        40.9899    3.1331   41.6117 C.3         1 XNC       0.0036
     24 C10        39.5951    2.7073   41.8336 C.2         1 XNC       0.0422
     25 N11        39.4001    1.4132   41.4885 N.pl3       1 XNC      -0.2908
     26 C5         38.3118    0.6003   41.4328 C.ar        1 XNC       0.1100
     27 C6         38.5522   -0.7817   41.2418 C.ar        1 XNC       0.0976
     28 O36        39.8139   -1.2736   41.1849 O.3         1 XNC      -0.3423
     29 C1         37.4880   -1.7015   41.2239 C.ar        1 XNC      -0.0580
     30 C18        37.2060    2.4090   44.2039 C.ar        1 XNC       0.0130
     31 C23        36.1861    2.7632   45.1417 C.ar        1 XNC       0.1283
     32 F34        35.2917    3.6823   44.8766 F           1 XNC      -0.1917
     33 C22        36.0854    2.1228   46.4001 C.ar        1 XNC      -0.0061
     34 C21        36.9856    1.1011   46.7571 C.ar        1 XNC       0.0849
     35 C20        37.9714    0.7173   45.8312 C.ar        1 XNC      -0.0435
     36 C19        38.1022    1.3832   44.6037 C.ar        1 XNC      -0.0671
     37 O24        36.8570    0.4184   47.9411 O.3         1 XNC      -0.3110
     38 C25        37.9118    0.6100   48.9113 C.3         1 XNC       0.1027
     39 C26        37.6453    1.7589   49.8111 C.ar        1 XNC      -0.0131
     40 C31        38.4060    2.9483   49.7240 C.ar        1 XNC      -0.0578
     41 C30        38.1865    4.0065   50.6257 C.ar        1 XNC      -0.0685
     42 C29        37.2065    3.8876   51.6271 C.ar        1 XNC      -0.0687
     43 C28        36.4360    2.7141   51.7174 C.ar        1 XNC      -0.0685
     44 C27        36.6494    1.6586   50.8105 C.ar        1 XNC      -0.0578
     45 H1         36.9180    4.8284   38.8202 H           1 XNC       0.0705
     46 H2         36.2824    7.1640   38.7735 H           1 XNC       0.0729
     47 H3         34.7904    8.0566   40.4650 H           1 XNC       0.0684
     48 H4         34.0541    6.4720   43.5237 H           1 XNC       0.0421
     49 H5         32.6886    6.1027   42.4500 H           1 XNC       0.0421
     50 H6         33.4019    7.7237   42.4547 H           1 XNC       0.0421
     51 H7         34.9460    0.4312   41.6845 H           1 XNC       0.0382
     52 H8         35.3973   -1.9249   41.3835 H           1 XNC       0.0451
     53 H9         36.7608    3.9967   42.9702 H           1 XNC       0.0812
     54 H10        41.4001    5.4694   43.1493 H           1 XNC       0.0503
     55 H11        40.7777    6.6112   41.9546 H           1 XNC       0.0503
     56 H12        40.8512    4.2411   39.0037 H           1 XNC       0.0237
     57 H13        40.6560    5.9362   39.4784 H           1 XNC       0.0237
     58 H14        39.4122    4.7518   39.8858 H           1 XNC       0.0237
     59 H15        43.3219    4.6274   41.8229 H           1 XNC       0.0237
     60 H16        42.9506    5.8792   40.6312 H           1 XNC       0.0237
     61 H17        43.1333    4.1961   40.1200 H           1 XNC       0.0237
     62 H18        41.5186    2.9736   42.5575 H           1 XNC       0.0444
     63 H19        41.4768    2.4789   40.8771 H           1 XNC       0.0444
     64 H20        40.2244    0.9478   41.2777 H           1 XNC       0.2009
     65 H21        39.9463   -1.5364   40.2514 H           1 XNC       0.2432
     66 H22        37.6716   -2.7025   41.1065 H           1 XNC       0.0389
     67 H23        35.3494    2.3886   47.0531 H           1 XNC       0.0510
     68 H24        38.6111   -0.0436   46.0621 H           1 XNC       0.0491
     69 H25        38.8783    1.0980   44.0157 H           1 XNC       0.0520
     70 H26        38.8983    0.6946   48.4472 H           1 XNC       0.0776
     71 H27        37.9458   -0.3006   49.5121 H           1 XNC       0.0776
     72 H28        39.1314    3.0493   49.0098 H           1 XNC       0.0557
     73 H29        38.7432    4.8604   50.5565 H           1 XNC       0.0599
     74 H30        37.0536    4.6536   52.2860 H           1 XNC       0.0559
     75 H31        35.7234    2.6262   52.4443 H           1 XNC       0.0599
     76 H32        36.0924    0.8051   50.9007 H           1 XNC       0.0557
@<TRIPOS>BOND
     1     1     2   2
     2     2     3   1
     3     2    10  am
     4     3     4  ar
     5     3     9  ar
     6     4     5  ar
     7     5     6  ar
     8     6     7  ar
     9     7     8   1
    10     7     9  ar
    11    10    11   1
    12    10    14   1
    13    11    12  ar
    14    11    26  ar
    15    12    13  ar
    16    13    29  ar
    17    14    15   1
    18    14    30   1
    19    15    16   1
    20    15    24   2
    21    16    17   2
    22    16    18   2
    23    16    19   1
    24    19    20   1
    25    20    21   1
    26    20    22   1
    27    20    23   1
    28    23    24   1
    29    24    25   1
    30    25    26   1
    31    26    27  ar
    32    27    28   1
    33    27    29  ar
    34    30    31  ar
    35    30    36  ar
    36    31    32   1
    37    31    33  ar
    38    33    34  ar
    39    34    35  ar
    40    34    37   1
    41    35    36  ar
    42    37    38   1
    43    38    39   1
    44    39    40  ar
    45    39    44  ar
    46    40    41  ar
    47    41    42  ar
    48    42    43  ar
    49    43    44  ar
    50     4    45   1
    51     5    46   1
    52     6    47   1
    53     8    48   1
    54     8    49   1
    55     8    50   1
    56    12    51   1
    57    13    52   1
    58    14    53   1
    59    19    54   1
    60    19    55   1
    61    21    56   1
    62    21    57   1
    63    21    58   1
    64    22    59   1
    65    22    60   1
    66    22    61   1
    67    23    62   1
    68    23    63   1
    69    25    64   1
    70    28    65   1
    71    29    66   1
    72    33    67   1
    73    35    68   1
    74    36    69   1
    75    38    70   1
    76    38    71   1
    77    40    72   1
    78    41    73   1
    79    42    74   1
    80    43    75   1
    81    44    76   1
@<TRIPOS>SUBSTRUCTURE
     1  XNC      2

