@<TRIPOS>MOLECULE
3gnw_ligand_031
    76    81
SMALL
GAST_HUCK
****
This file was generated by PARSER (from files_GN.cpp)

@<TRIPOS>ATOM
      1 O35        28.8907    3.8809   39.6613 O.2         1 XNC      -0.3687
      2 C16        28.5390    2.7074   39.5974 C.2         1 XNC       0.2510
      3 C17        27.9023    2.2484   40.7590 C.ar        1 XNC       0.1194
      4 C43        26.7979    1.3622   40.7398 C.ar        1 XNC      -0.0209
      5 C42        26.2148    0.9405   41.9477 C.ar        1 XNC      -0.0435
      6 C41        26.6993    1.4298   43.1709 C.ar        1 XNC      -0.0287
      7 C40        27.7679    2.3494   43.1695 C.ar        1 XNC       0.0301
      8 C44        28.2813    2.9237   44.4273 C.3         1 XNC      -0.0144
      9 N39        28.3155    2.7097   41.9758 N.ar        1 XNC      -0.2781
     10 N7         28.7521    2.0072   38.4548 N.am        1 XNC      -0.2078
     11 C4         28.6387    0.6291   38.4186 C.ar        1 XNC       0.0880
     12 C3         29.3903   -0.1563   39.3292 C.ar        1 XNC      -0.0607
     13 C2         29.2754   -1.5549   39.3437 C.ar        1 XNC      -0.0955
     14 C8         29.0589    2.6624   37.1794 C.3         1 XNC       0.1162
     15 C9         27.7913    2.8985   36.4698 C.2         1 XNC       0.0894
     16 S12        27.4174    4.5504   36.1219 S.o2        1 XNC      -0.0239
     17 O32        28.5805    5.2267   35.2738 O.2         1 XNC      -0.1768
     18 O33        27.2931    5.3493   37.4928 O.2         1 XNC      -0.1768
     19 C13        25.8516    4.7043   35.2509 C.3         1 XNC       0.0705
     20 C14        24.9213    3.4905   35.5581 C.3         1 XNC      -0.0050
     21 C37        24.3551    3.5522   37.0163 C.3         1 XNC      -0.0565
     22 C38        23.7207    3.5450   34.5591 C.3         1 XNC      -0.0565
     23 C15        25.7296    2.1654   35.3256 C.3         1 XNC       0.0036
     24 C10        26.8797    1.9252   36.2143 C.2         1 XNC       0.0422
     25 N11        27.0203    0.6283   36.5633 N.pl3       1 XNC      -0.2908
     26 C5         27.7931   -0.0190   37.4767 C.ar        1 XNC       0.1100
     27 C6         27.7029   -1.4344   37.4938 C.ar        1 XNC       0.0976
     28 O36        26.9305   -2.1104   36.6079 O.3         1 XNC      -0.3423
     29 C1         28.4317   -2.1939   38.4258 C.ar        1 XNC      -0.0580
     30 C18        30.2087    2.0348   36.4186 C.ar        1 XNC       0.0130
     31 C23        30.1261    1.2671   35.2197 C.ar        1 XNC       0.1283
     32 F34        29.0208    1.0793   34.5602 F           1 XNC      -0.1917
     33 C22        31.2711    0.6639   34.6623 C.ar        1 XNC      -0.0061
     34 C21        32.5428    0.8626   35.2294 C.ar        1 XNC       0.0849
     35 C20        32.6479    1.7061   36.3526 C.ar        1 XNC      -0.0435
     36 C19        31.5022    2.2355   36.9619 C.ar        1 XNC      -0.0671
     37 O24        33.6238    0.2880   34.5990 O.3         1 XNC      -0.3110
     38 C25        34.5114   -0.5221   35.4039 C.3         1 XNC       0.1027
     39 C26        35.5716    0.3129   36.0221 C.ar        1 XNC      -0.0131
     40 C31        35.6806    0.4669   37.4239 C.ar        1 XNC      -0.0578
     41 C30        36.6123    1.3703   37.9743 C.ar        1 XNC      -0.0685
     42 C29        37.4673    2.0989   37.1285 C.ar        1 XNC      -0.0687
     43 C28        37.3948    1.9249   35.7354 C.ar        1 XNC      -0.0685
     44 C27        36.4511    1.0389   35.1851 C.ar        1 XNC      -0.0578
     45 H1         26.3963    1.0315   39.8608 H           1 XNC       0.0705
     46 H2         25.4291    0.2870   41.9344 H           1 XNC       0.0729
     47 H3         26.2663    1.1292   44.0474 H           1 XNC       0.0684
     48 H4         29.1103    3.6083   44.2371 H           1 XNC       0.0421
     49 H5         28.6334    2.1270   45.0836 H           1 XNC       0.0421
     50 H6         27.4850    3.4736   44.9319 H           1 XNC       0.0421
     51 H7         30.0181    0.2930   40.0008 H           1 XNC       0.0382
     52 H8         29.8051   -2.1074   40.0203 H           1 XNC       0.0451
     53 H9         29.4638    3.6567   37.3948 H           1 XNC       0.0812
     54 H10        26.0836    4.7446   34.1837 H           1 XNC       0.0503
     55 H11        25.3777    5.6494   35.5270 H           1 XNC       0.0503
     56 H12        23.6831    2.7113   37.2011 H           1 XNC       0.0237
     57 H13        23.7989    4.4780   37.1775 H           1 XNC       0.0237
     58 H14        25.1532    3.5088   37.7592 H           1 XNC       0.0237
     59 H15        24.0686    3.4554   33.5275 H           1 XNC       0.0237
     60 H16        23.1830    4.4912   34.6511 H           1 XNC       0.0237
     61 H17        23.0192    2.7308   34.7523 H           1 XNC       0.0237
     62 H18        26.1155    2.1624   34.3004 H           1 XNC       0.0444
     63 H19        25.0209    1.3314   35.3858 H           1 XNC       0.0444
     64 H20        26.4463    0.0311   36.0584 H           1 XNC       0.2009
     65 H21        27.4610   -2.1458   35.7849 H           1 XNC       0.2432
     66 H22        28.3578   -3.2143   38.4310 H           1 XNC       0.0389
     67 H23        31.1855    0.0905   33.8176 H           1 XNC       0.0510
     68 H24        33.5524    1.9532   36.7388 H           1 XNC       0.0491
     69 H25        31.6320    2.8110   37.7998 H           1 XNC       0.0520
     70 H26        34.9979   -1.2380   34.7392 H           1 XNC       0.0776
     71 H27        33.9554   -1.1086   36.1429 H           1 XNC       0.0776
     72 H28        35.0486   -0.0368   38.0534 H           1 XNC       0.0557
     73 H29        36.6619    1.5015   38.9864 H           1 XNC       0.0599
     74 H30        38.1473    2.7516   37.5267 H           1 XNC       0.0559
     75 H31        38.0257    2.4445   35.1195 H           1 XNC       0.0599
     76 H32        36.3979    0.9384   34.1692 H           1 XNC       0.0557
@<TRIPOS>BOND
     1     1     2   2
     2     2     3   1
     3     2    10  am
     4     3     4  ar
     5     3     9  ar
     6     4     5  ar
     7     5     6  ar
     8     6     7  ar
     9     7     8   1
    10     7     9  ar
    11    10    11   1
    12    10    14   1
    13    11    12  ar
    14    11    26  ar
    15    12    13  ar
    16    13    29  ar
    17    14    15   1
    18    14    30   1
    19    15    16   1
    20    15    24   2
    21    16    17   2
    22    16    18   2
    23    16    19   1
    24    19    20   1
    25    20    21   1
    26    20    22   1
    27    20    23   1
    28    23    24   1
    29    24    25   1
    30    25    26   1
    31    26    27  ar
    32    27    28   1
    33    27    29  ar
    34    30    31  ar
    35    30    36  ar
    36    31    32   1
    37    31    33  ar
    38    33    34  ar
    39    34    35  ar
    40    34    37   1
    41    35    36  ar
    42    37    38   1
    43    38    39   1
    44    39    40  ar
    45    39    44  ar
    46    40    41  ar
    47    41    42  ar
    48    42    43  ar
    49    43    44  ar
    50     4    45   1
    51     5    46   1
    52     6    47   1
    53     8    48   1
    54     8    49   1
    55     8    50   1
    56    12    51   1
    57    13    52   1
    58    14    53   1
    59    19    54   1
    60    19    55   1
    61    21    56   1
    62    21    57   1
    63    21    58   1
    64    22    59   1
    65    22    60   1
    66    22    61   1
    67    23    62   1
    68    23    63   1
    69    25    64   1
    70    28    65   1
    71    29    66   1
    72    33    67   1
    73    35    68   1
    74    36    69   1
    75    38    70   1
    76    38    71   1
    77    40    72   1
    78    41    73   1
    79    42    74   1
    80    43    75   1
    81    44    76   1
@<TRIPOS>SUBSTRUCTURE
     1  XNC      2

