@<TRIPOS>MOLECULE
3gnw_ligand_003
    76    81
SMALL
GAST_HUCK
****
This file was generated by PARSER (from files_GN.cpp)

@<TRIPOS>ATOM
      1 O35        30.4657    3.5915   35.8393 O.2         1 XNC      -0.3687
      2 C16        29.2927    3.6396   35.4833 C.2         1 XNC       0.2510
      3 C17        28.7817    2.4082   35.0661 C.ar        1 XNC       0.1194
      4 C43        27.4963    1.9411   35.4246 C.ar        1 XNC      -0.0209
      5 C42        27.0663    0.6734   34.9825 C.ar        1 XNC      -0.0435
      6 C41        27.9148   -0.1217   34.1981 C.ar        1 XNC      -0.0287
      7 C40        29.1990    0.3583   33.8679 C.ar        1 XNC       0.0301
      8 C44        30.1400   -0.4380   33.0586 C.3         1 XNC      -0.0144
      9 N39        29.5720    1.5865   34.3164 N.ar        1 XNC      -0.2781
     10 N7         28.6142    4.8107   35.5616 N.am        1 XNC      -0.2078
     11 C4         27.4031    4.9959   34.9091 C.ar        1 XNC       0.0880
     12 C3         27.3134    4.7316   33.5186 C.ar        1 XNC      -0.0607
     13 C2         26.1070    4.9140   32.8241 C.ar        1 XNC      -0.0955
     14 C8         29.1092    5.9364   36.3546 C.3         1 XNC       0.1162
     15 C9         28.4891    5.8005   37.6906 C.2         1 XNC       0.0894
     16 S12        29.5505    5.5233   39.0238 S.o2        1 XNC      -0.0239
     17 O32        30.4939    6.7801   39.2696 O.2         1 XNC      -0.1768
     18 O33        30.4760    4.2700   38.7114 O.2         1 XNC      -0.1768
     19 C13        28.6295    5.1426   40.5315 C.3         1 XNC       0.0705
     20 C14        27.2073    4.5930   40.2041 C.3         1 XNC      -0.0050
     21 C37        27.2672    3.1471   39.6037 C.3         1 XNC      -0.0565
     22 C38        26.3811    4.5194   41.5315 C.3         1 XNC      -0.0565
     23 C15        26.5232    5.5991   39.2143 C.3         1 XNC       0.0036
     24 C10        27.1458    5.7308   37.8826 C.2         1 XNC       0.0422
     25 N11        26.2377    5.8413   36.9018 N.pl3       1 XNC      -0.2908
     26 C5         26.2684    5.5312   35.5784 C.ar        1 XNC       0.1100
     27 C6         25.0555    5.7154   34.8713 C.ar        1 XNC       0.0976
     28 O36        23.9569    6.2361   35.4865 O.3         1 XNC      -0.3423
     29 C1         24.9761    5.3850   33.5050 C.ar        1 XNC      -0.0580
     30 C18        29.0298    7.2668   35.6391 C.ar        1 XNC       0.0130
     31 C23        29.5850    7.3936   34.3357 C.ar        1 XNC       0.1283
     32 F34        30.1852    6.3885   33.7488 F           1 XNC      -0.1917
     33 C22        29.5275    8.6145   33.6321 C.ar        1 XNC      -0.0061
     34 C21        28.9088    9.7520   34.2023 C.ar        1 XNC       0.0849
     35 C20        28.3754    9.6346   35.5007 C.ar        1 XNC      -0.0435
     36 C19        28.4348    8.4200   36.2079 C.ar        1 XNC      -0.0671
     37 O24        28.8831   11.0076   33.6273 O.3         1 XNC      -0.3110
     38 C25        28.8734   11.1773   32.1942 C.3         1 XNC       0.1027
     39 C26        27.5852   10.7801   31.5710 C.ar        1 XNC      -0.0131
     40 C31        26.4347   11.5975   31.7030 C.ar        1 XNC      -0.0578
     41 C30        25.2293   11.2436   31.0705 C.ar        1 XNC      -0.0685
     42 C29        25.1476   10.0562   30.3204 C.ar        1 XNC      -0.0687
     43 C28        26.2756    9.2211   30.2038 C.ar        1 XNC      -0.0685
     44 C27        27.4860    9.5864   30.8185 C.ar        1 XNC      -0.0578
     45 H1         26.8757    2.4926   36.0193 H           1 XNC       0.0705
     46 H2         26.1389    0.3328   35.2418 H           1 XNC       0.0729
     47 H3         27.6032   -1.0418   33.8769 H           1 XNC       0.0684
     48 H4         31.0890    0.0886   32.9257 H           1 XNC       0.0421
     49 H5         29.7078   -0.6272   32.0759 H           1 XNC       0.0421
     50 H6         30.3365   -1.3888   33.5543 H           1 XNC       0.0421
     51 H7         28.1319    4.4014   33.0002 H           1 XNC       0.0382
     52 H8         26.0550    4.7073   31.8226 H           1 XNC       0.0451
     53 H9         30.1904    5.8478   36.4917 H           1 XNC       0.0812
     54 H10        28.5480    6.0711   41.1010 H           1 XNC       0.0503
     55 H11        29.2010    4.4303   41.1319 H           1 XNC       0.0503
     56 H12        26.2610    2.7773   39.3906 H           1 XNC       0.0237
     57 H13        27.7428    2.4570   40.3054 H           1 XNC       0.0237
     58 H14        27.8351    3.1194   38.6732 H           1 XNC       0.0237
     59 H15        26.2791    5.5087   41.9830 H           1 XNC       0.0237
     60 H16        26.8699    3.8647   42.2592 H           1 XNC       0.0237
     61 H17        25.3756    4.1292   41.3474 H           1 XNC       0.0237
     62 H18        26.5056    6.5957   39.6641 H           1 XNC       0.0444
     63 H19        25.4760    5.2881   39.1143 H           1 XNC       0.0444
     64 H20        25.3602    6.1201   37.2076 H           1 XNC       0.2009
     65 H21        23.2372    5.5758   35.3778 H           1 XNC       0.2432
     66 H22        24.0956    5.5013   33.0013 H           1 XNC       0.0389
     67 H23        29.9530    8.6814   32.7056 H           1 XNC       0.0510
     68 H24        27.9442   10.4481   35.9500 H           1 XNC       0.0491
     69 H25        28.0473    8.3910   37.1518 H           1 XNC       0.0520
     70 H26        29.7224   10.6507   31.7506 H           1 XNC       0.0776
     71 H27        29.0377   12.2418   31.9875 H           1 XNC       0.0776
     72 H28        26.4781   12.4664   32.2423 H           1 XNC       0.0557
     73 H29        24.4100   11.8501   31.1530 H           1 XNC       0.0599
     74 H30        24.2707    9.7976   29.8675 H           1 XNC       0.0559
     75 H31        26.2198    8.3560   29.6648 H           1 XNC       0.0599
     76 H32        28.2979    8.9744   30.7124 H           1 XNC       0.0557
@<TRIPOS>BOND
     1     1     2   2
     2     2     3   1
     3     2    10  am
     4     3     4  ar
     5     3     9  ar
     6     4     5  ar
     7     5     6  ar
     8     6     7  ar
     9     7     8   1
    10     7     9  ar
    11    10    11   1
    12    10    14   1
    13    11    12  ar
    14    11    26  ar
    15    12    13  ar
    16    13    29  ar
    17    14    15   1
    18    14    30   1
    19    15    16   1
    20    15    24   2
    21    16    17   2
    22    16    18   2
    23    16    19   1
    24    19    20   1
    25    20    21   1
    26    20    22   1
    27    20    23   1
    28    23    24   1
    29    24    25   1
    30    25    26   1
    31    26    27  ar
    32    27    28   1
    33    27    29  ar
    34    30    31  ar
    35    30    36  ar
    36    31    32   1
    37    31    33  ar
    38    33    34  ar
    39    34    35  ar
    40    34    37   1
    41    35    36  ar
    42    37    38   1
    43    38    39   1
    44    39    40  ar
    45    39    44  ar
    46    40    41  ar
    47    41    42  ar
    48    42    43  ar
    49    43    44  ar
    50     4    45   1
    51     5    46   1
    52     6    47   1
    53     8    48   1
    54     8    49   1
    55     8    50   1
    56    12    51   1
    57    13    52   1
    58    14    53   1
    59    19    54   1
    60    19    55   1
    61    21    56   1
    62    21    57   1
    63    21    58   1
    64    22    59   1
    65    22    60   1
    66    22    61   1
    67    23    62   1
    68    23    63   1
    69    25    64   1
    70    28    65   1
    71    29    66   1
    72    33    67   1
    73    35    68   1
    74    36    69   1
    75    38    70   1
    76    38    71   1
    77    40    72   1
    78    41    73   1
    79    42    74   1
    80    43    75   1
    81    44    76   1
@<TRIPOS>SUBSTRUCTURE
     1  XNC      2

