@<TRIPOS>MOLECULE
3gnw_ligand_071
    76    81
SMALL
GAST_HUCK
****
This file was generated by PARSER (from files_GN.cpp)

@<TRIPOS>ATOM
      1 O35        25.1232    4.3007   41.2282 O.2         1 XNC      -0.3687
      2 C16        26.1275    3.6154   41.0604 C.2         1 XNC       0.2510
      3 C17        26.2479    2.5848   41.9775 C.ar        1 XNC       0.1194
      4 C43        26.1907    2.7985   43.3743 C.ar        1 XNC      -0.0209
      5 C42        26.2633    1.6958   44.2439 C.ar        1 XNC      -0.0435
      6 C41        26.3641    0.3938   43.7225 C.ar        1 XNC      -0.0287
      7 C40        26.3913    0.2109   42.3234 C.ar        1 XNC       0.0301
      8 C44        26.4547   -1.1330   41.7202 C.3         1 XNC      -0.0144
      9 N39        26.3367    1.3062   41.5200 N.ar        1 XNC      -0.2781
     10 N7         26.9742    3.8759   40.0329 N.am        1 XNC      -0.2078
     11 C4         26.6130    4.8108   39.0817 C.ar        1 XNC       0.0880
     12 C3         25.4505    4.5885   38.3025 C.ar        1 XNC      -0.0607
     13 C2         25.0469    5.5144   37.3290 C.ar        1 XNC      -0.0955
     14 C8         28.3488    3.3766   39.9629 C.3         1 XNC       0.1162
     15 C9         29.2316    4.3071   40.6953 C.2         1 XNC       0.0894
     16 S12        30.2594    3.5974   41.8884 S.o2        1 XNC      -0.0239
     17 O32        31.1972    2.5251   41.1820 O.2         1 XNC      -0.1768
     18 O33        29.4297    2.8253   43.0031 O.2         1 XNC      -0.1768
     19 C13        31.3003    4.8362   42.6815 C.3         1 XNC       0.0705
     20 C14        31.5589    6.0376   41.7251 C.3         1 XNC      -0.0050
     21 C37        32.2671    7.1714   42.5388 C.3         1 XNC      -0.0565
     22 C38        32.5106    5.6414   40.5462 C.3         1 XNC      -0.0565
     23 C15        30.1734    6.5658   41.1972 C.3         1 XNC       0.0036
     24 C10        29.2715    5.6454   40.4701 C.2         1 XNC       0.0422
     25 N11        28.5279    6.2825   39.5409 N.pl3       1 XNC      -0.2908
     26 C5         27.4025    5.9679   38.8481 C.ar        1 XNC       0.1100
     27 C6         26.9921    6.8835   37.8474 C.ar        1 XNC       0.0976
     28 O36        27.7157    7.9970   37.5547 O.3         1 XNC      -0.3423
     29 C1         25.8221    6.6609   37.0989 C.ar        1 XNC      -0.0580
     30 C18        28.7590    2.9162   38.5750 C.ar        1 XNC       0.0130
     31 C23        29.7212    3.5387   37.7271 C.ar        1 XNC       0.1283
     32 F34        30.3776    4.6192   38.0479 F           1 XNC      -0.1917
     33 C22        30.0097    3.0150   36.4500 C.ar        1 XNC      -0.0061
     34 C21        29.3737    1.8575   35.9785 C.ar        1 XNC       0.0849
     35 C20        28.4321    1.2146   36.8074 C.ar        1 XNC      -0.0435
     36 C19        28.1184    1.7502   38.0701 C.ar        1 XNC      -0.0671
     37 O24        29.7525    1.4373   34.7302 O.3         1 XNC      -0.3110
     38 C25        28.7629    0.9791   33.7898 C.3         1 XNC       0.1027
     39 C26        27.5790    1.8654   33.6048 C.ar        1 XNC      -0.0131
     40 C31        26.2636    1.3455   33.6654 C.ar        1 XNC      -0.0578
     41 C30        25.1505    2.1812   33.4585 C.ar        1 XNC      -0.0685
     42 C29        25.3378    3.5517   33.2053 C.ar        1 XNC      -0.0687
     43 C28        26.6387    4.0852   33.1567 C.ar        1 XNC      -0.0685
     44 C27        27.7528    3.2458   33.3479 C.ar        1 XNC      -0.0578
     45 H1         26.1083    3.7435   43.7611 H           1 XNC       0.0705
     46 H2         26.2343    1.8404   45.2552 H           1 XNC       0.0729
     47 H3         26.4035   -0.4057   44.3574 H           1 XNC       0.0684
     48 H4         26.4028   -1.0762   40.6309 H           1 XNC       0.0421
     49 H5         25.6179   -1.7375   42.0743 H           1 XNC       0.0421
     50 H6         27.3901   -1.6194   41.9976 H           1 XNC       0.0421
     51 H7         24.8866    3.7462   38.4475 H           1 XNC       0.0382
     52 H8         24.1978    5.3501   36.7834 H           1 XNC       0.0451
     53 H9         28.3912    2.4389   40.5186 H           1 XNC       0.0812
     54 H10        32.2353    4.3716   42.9980 H           1 XNC       0.0503
     55 H11        30.7739    5.1759   43.5758 H           1 XNC       0.0503
     56 H12        32.4748    8.0355   41.9039 H           1 XNC       0.0237
     57 H13        33.2140    6.8183   42.9511 H           1 XNC       0.0237
     58 H14        31.6427    7.5062   43.3695 H           1 XNC       0.0237
     59 H15        32.1242    4.7946   39.9836 H           1 XNC       0.0237
     60 H16        33.4963    5.3632   40.9237 H           1 XNC       0.0237
     61 H17        32.6354    6.4755   39.8526 H           1 XNC       0.0237
     62 H18        30.3967    7.4358   40.5664 H           1 XNC       0.0444
     63 H19        29.6040    6.9580   42.0474 H           1 XNC       0.0444
     64 H20        28.8683    7.1638   39.3238 H           1 XNC       0.2009
     65 H21        28.5558    7.6611   37.1739 H           1 XNC       0.2432
     66 H22        25.5323    7.3306   36.3796 H           1 XNC       0.0389
     67 H23        30.6945    3.4844   35.8504 H           1 XNC       0.0510
     68 H24        27.9646    0.3629   36.4933 H           1 XNC       0.0491
     69 H25        27.4166    1.2641   38.6364 H           1 XNC       0.0520
     70 H26        28.4664   -0.0331   34.0772 H           1 XNC       0.0776
     71 H27        29.2682    0.9004   32.8241 H           1 XNC       0.0776
     72 H28        26.1065    0.3496   33.8393 H           1 XNC       0.0557
     73 H29        24.2051    1.7910   33.4863 H           1 XNC       0.0599
     74 H30        24.5286    4.1593   33.0530 H           1 XNC       0.0559
     75 H31        26.7746    5.0825   32.9740 H           1 XNC       0.0599
     76 H32        28.6925    3.6482   33.2979 H           1 XNC       0.0557
@<TRIPOS>BOND
     1     1     2   2
     2     2     3   1
     3     2    10  am
     4     3     4  ar
     5     3     9  ar
     6     4     5  ar
     7     5     6  ar
     8     6     7  ar
     9     7     8   1
    10     7     9  ar
    11    10    11   1
    12    10    14   1
    13    11    12  ar
    14    11    26  ar
    15    12    13  ar
    16    13    29  ar
    17    14    15   1
    18    14    30   1
    19    15    16   1
    20    15    24   2
    21    16    17   2
    22    16    18   2
    23    16    19   1
    24    19    20   1
    25    20    21   1
    26    20    22   1
    27    20    23   1
    28    23    24   1
    29    24    25   1
    30    25    26   1
    31    26    27  ar
    32    27    28   1
    33    27    29  ar
    34    30    31  ar
    35    30    36  ar
    36    31    32   1
    37    31    33  ar
    38    33    34  ar
    39    34    35  ar
    40    34    37   1
    41    35    36  ar
    42    37    38   1
    43    38    39   1
    44    39    40  ar
    45    39    44  ar
    46    40    41  ar
    47    41    42  ar
    48    42    43  ar
    49    43    44  ar
    50     4    45   1
    51     5    46   1
    52     6    47   1
    53     8    48   1
    54     8    49   1
    55     8    50   1
    56    12    51   1
    57    13    52   1
    58    14    53   1
    59    19    54   1
    60    19    55   1
    61    21    56   1
    62    21    57   1
    63    21    58   1
    64    22    59   1
    65    22    60   1
    66    22    61   1
    67    23    62   1
    68    23    63   1
    69    25    64   1
    70    28    65   1
    71    29    66   1
    72    33    67   1
    73    35    68   1
    74    36    69   1
    75    38    70   1
    76    38    71   1
    77    40    72   1
    78    41    73   1
    79    42    74   1
    80    43    75   1
    81    44    76   1
@<TRIPOS>SUBSTRUCTURE
     1  XNC      2

