@<TRIPOS>MOLECULE
3gnw_ligand_030
    76    81
SMALL
GAST_HUCK
****
This file was generated by PARSER (from files_GN.cpp)

@<TRIPOS>ATOM
      1 O35        29.3111    4.7931   37.0642 O.2         1 XNC      -0.3687
      2 C16        29.1440    3.5787   37.0466 C.2         1 XNC       0.2510
      3 C17        29.1246    3.0239   35.7690 C.ar        1 XNC       0.1194
      4 C43        28.3232    3.5489   34.7301 C.ar        1 XNC      -0.0209
      5 C42        28.3511    2.9394   33.4651 C.ar        1 XNC      -0.0435
      6 C41        29.1815    1.8292   33.2356 C.ar        1 XNC      -0.0287
      7 C40        29.9877    1.3401   34.2848 C.ar        1 XNC       0.0301
      8 C44        30.9132    0.2122   34.0741 C.3         1 XNC      -0.0144
      9 N39        29.9166    1.9495   35.4979 N.ar        1 XNC      -0.2781
     10 N7         29.0617    2.8721   38.1985 N.am        1 XNC      -0.2078
     11 C4         28.6134    1.5575   38.2062 C.ar        1 XNC       0.0880
     12 C3         27.3715    1.2449   37.5944 C.ar        1 XNC      -0.0607
     13 C2         26.8681   -0.0625   37.5918 C.ar        1 XNC      -0.0955
     14 C8         29.4666    3.4480   39.4869 C.3         1 XNC       0.1162
     15 C9         30.8835    3.0730   39.6722 C.2         1 XNC       0.0894
     16 S12        32.0294    4.3618   39.7721 S.o2        1 XNC      -0.0239
     17 O32        31.6761    5.3365   40.9785 O.2         1 XNC      -0.1768
     18 O33        31.9829    5.2086   38.4281 O.2         1 XNC      -0.1768
     19 C13        33.7060    3.7272   39.9795 C.3         1 XNC       0.0705
     20 C14        33.8379    2.2749   39.4249 C.3         1 XNC      -0.0050
     21 C37        33.7873    2.2455   37.8604 C.3         1 XNC      -0.0565
     22 C38        35.2202    1.6957   39.8720 C.3         1 XNC      -0.0565
     23 C15        32.6887    1.4066   40.0471 C.3         1 XNC       0.0036
     24 C10        31.3078    1.7818   39.6974 C.2         1 XNC       0.0422
     25 N11        30.5105    0.7141   39.5187 N.pl3       1 XNC      -0.2908
     26 C5         29.3240    0.5273   38.8828 C.ar        1 XNC       0.1100
     27 C6         28.8032   -0.7938   38.8753 C.ar        1 XNC       0.0976
     28 O36        29.4355   -1.8479   39.4602 O.3         1 XNC      -0.3423
     29 C1         27.5910   -1.0821   38.2221 C.ar        1 XNC      -0.0580
     30 C18        28.5401    3.1904   40.6544 C.ar        1 XNC       0.0130
     31 C23        27.1288    3.2450   40.4824 C.ar        1 XNC       0.1283
     32 F34        26.5773    3.5834   39.3485 F           1 XNC      -0.1917
     33 C22        26.2551    2.9476   41.5441 C.ar        1 XNC      -0.0061
     34 C21        26.7592    2.6674   42.8254 C.ar        1 XNC       0.0849
     35 C20        28.1479    2.7487   43.0475 C.ar        1 XNC      -0.0435
     36 C19        29.0239    2.9878   41.9749 C.ar        1 XNC      -0.0671
     37 O24        25.8697    2.3669   43.8235 O.3         1 XNC      -0.3110
     38 C25        25.9411    1.0389   44.3859 C.3         1 XNC       0.1027
     39 C26        25.5870   -0.0567   43.4383 C.ar        1 XNC      -0.0131
     40 C31        26.5394   -0.5330   42.5047 C.ar        1 XNC      -0.0578
     41 C30        26.2245   -1.5931   41.6350 C.ar        1 XNC      -0.0685
     42 C29        24.9527   -2.1896   41.6815 C.ar        1 XNC      -0.0687
     43 C28        23.9947   -1.7246   42.5995 C.ar        1 XNC      -0.0685
     44 C27        24.3101   -0.6660   43.4724 C.ar        1 XNC      -0.0578
     45 H1         27.7086    4.3523   34.8921 H           1 XNC       0.0705
     46 H2         27.7692    3.3082   32.7114 H           1 XNC       0.0729
     47 H3         29.2097    1.3954   32.3098 H           1 XNC       0.0684
     48 H4         31.5122    0.0241   34.9671 H           1 XNC       0.0421
     49 H5         31.5924    0.4357   33.2475 H           1 XNC       0.0421
     50 H6         30.3473   -0.6897   33.8336 H           1 XNC       0.0421
     51 H7         26.8173    1.9787   37.1468 H           1 XNC       0.0382
     52 H8         25.9699   -0.2676   37.1462 H           1 XNC       0.0451
     53 H9         29.4048    4.5383   39.4229 H           1 XNC       0.0812
     54 H10        33.9240    3.7394   41.0496 H           1 XNC       0.0503
     55 H11        34.4093    4.4039   39.4886 H           1 XNC       0.0503
     56 H12        33.8925    1.2232   37.4904 H           1 XNC       0.0237
     57 H13        34.5956    2.8458   37.4369 H           1 XNC       0.0237
     58 H14        32.8442    2.6400   37.4801 H           1 XNC       0.0237
     59 H15        35.2959    1.6608   40.9614 H           1 XNC       0.0237
     60 H16        36.0393    2.3131   39.4953 H           1 XNC       0.0237
     61 H17        35.3601    0.6802   39.4936 H           1 XNC       0.0237
     62 H18        32.7594    1.4427   41.1393 H           1 XNC       0.0444
     63 H19        32.8817    0.3643   39.7641 H           1 XNC       0.0444
     64 H20        30.8941   -0.1025   39.8642 H           1 XNC       0.2009
     65 H21        29.8925   -1.5030   40.2544 H           1 XNC       0.2432
     66 H22        27.2273   -2.0384   38.2068 H           1 XNC       0.0389
     67 H23        25.2441    2.9339   41.3869 H           1 XNC       0.0510
     68 H24        28.5221    2.6070   43.9890 H           1 XNC       0.0491
     69 H25        30.0246    3.0237   42.1791 H           1 XNC       0.0520
     70 H26        25.2400    1.0449   45.2253 H           1 XNC       0.0776
     71 H27        26.9268    0.8450   44.8184 H           1 XNC       0.0776
     72 H28        27.4767   -0.1262   42.4628 H           1 XNC       0.0557
     73 H29        26.9256   -1.9430   40.9807 H           1 XNC       0.0599
     74 H30        24.7285   -2.9672   41.0552 H           1 XNC       0.0559
     75 H31        23.0721   -2.1635   42.6405 H           1 XNC       0.0599
     76 H32        23.5993   -0.3422   44.1325 H           1 XNC       0.0557
@<TRIPOS>BOND
     1     1     2   2
     2     2     3   1
     3     2    10  am
     4     3     4  ar
     5     3     9  ar
     6     4     5  ar
     7     5     6  ar
     8     6     7  ar
     9     7     8   1
    10     7     9  ar
    11    10    11   1
    12    10    14   1
    13    11    12  ar
    14    11    26  ar
    15    12    13  ar
    16    13    29  ar
    17    14    15   1
    18    14    30   1
    19    15    16   1
    20    15    24   2
    21    16    17   2
    22    16    18   2
    23    16    19   1
    24    19    20   1
    25    20    21   1
    26    20    22   1
    27    20    23   1
    28    23    24   1
    29    24    25   1
    30    25    26   1
    31    26    27  ar
    32    27    28   1
    33    27    29  ar
    34    30    31  ar
    35    30    36  ar
    36    31    32   1
    37    31    33  ar
    38    33    34  ar
    39    34    35  ar
    40    34    37   1
    41    35    36  ar
    42    37    38   1
    43    38    39   1
    44    39    40  ar
    45    39    44  ar
    46    40    41  ar
    47    41    42  ar
    48    42    43  ar
    49    43    44  ar
    50     4    45   1
    51     5    46   1
    52     6    47   1
    53     8    48   1
    54     8    49   1
    55     8    50   1
    56    12    51   1
    57    13    52   1
    58    14    53   1
    59    19    54   1
    60    19    55   1
    61    21    56   1
    62    21    57   1
    63    21    58   1
    64    22    59   1
    65    22    60   1
    66    22    61   1
    67    23    62   1
    68    23    63   1
    69    25    64   1
    70    28    65   1
    71    29    66   1
    72    33    67   1
    73    35    68   1
    74    36    69   1
    75    38    70   1
    76    38    71   1
    77    40    72   1
    78    41    73   1
    79    42    74   1
    80    43    75   1
    81    44    76   1
@<TRIPOS>SUBSTRUCTURE
     1  XNC      2

