@<TRIPOS>MOLECULE
3gnw_ligand_043
    76    81
SMALL
GAST_HUCK
****
This file was generated by PARSER (from files_GN.cpp)

@<TRIPOS>ATOM
      1 O35        25.8371    2.9679   37.8829 O.2         1 XNC      -0.3687
      2 C16        26.5006    1.9712   37.6074 C.2         1 XNC       0.2510
      3 C17        26.8569    1.8735   36.2620 C.ar        1 XNC       0.1194
      4 C43        25.9649    2.1570   35.1977 C.ar        1 XNC      -0.0209
      5 C42        26.4030    2.0157   33.8689 C.ar        1 XNC      -0.0435
      6 C41        27.7258    1.6191   33.6039 C.ar        1 XNC      -0.0287
      7 C40        28.5946    1.3500   34.6797 C.ar        1 XNC       0.0301
      8 C44        29.9812    0.9087   34.4563 C.3         1 XNC      -0.0144
      9 N39        28.1254    1.4897   35.9474 N.ar        1 XNC      -0.2781
     10 N7         26.9019    1.1208   38.5881 N.am        1 XNC      -0.2078
     11 C4         27.3838   -0.1530   38.3114 C.ar        1 XNC       0.0880
     12 C3         26.6417   -0.9965   37.4452 C.ar        1 XNC      -0.0607
     13 C2         27.0452   -2.3153   37.1879 C.ar        1 XNC      -0.0955
     14 C8         26.8657    1.5251   39.9988 C.3         1 XNC       0.1162
     15 C9         28.2054    2.0693   40.2770 C.2         1 XNC       0.0894
     16 S12        28.3060    3.7498   40.6417 S.o2        1 XNC      -0.0239
     17 O32        27.3024    4.1568   41.8068 O.2         1 XNC      -0.1768
     18 O33        27.9097    4.5794   39.3439 O.2         1 XNC      -0.1768
     19 C13        29.9933    4.2022   41.0925 C.3         1 XNC       0.0705
     20 C14        31.0353    3.2653   40.4013 C.3         1 XNC      -0.0050
     21 C37        31.1156    3.5261   38.8601 C.3         1 XNC      -0.0565
     22 C38        32.4445    3.5586   41.0161 C.3         1 XNC      -0.0565
     23 C15        30.6330    1.7809   40.7039 C.3         1 XNC       0.0036
     24 C10        29.3316    1.3177   40.1941 C.2         1 XNC       0.0422
     25 N11        29.3547    0.0398   39.7790 N.pl3       1 XNC      -0.2908
     26 C5         28.5434   -0.6786   38.9515 C.ar        1 XNC       0.1100
     27 C6         28.9257   -2.0261   38.7048 C.ar        1 XNC       0.0976
     28 O36        30.0127   -2.6192   39.2704 O.3         1 XNC      -0.3423
     29 C1         28.1797   -2.8294   37.8239 C.ar        1 XNC      -0.0580
     30 C18        26.3183    0.5130   40.9882 C.ar        1 XNC       0.0130
     31 C23        26.5659    0.5642   42.3909 C.ar        1 XNC       0.1283
     32 F34        27.3507    1.4610   42.9312 F           1 XNC      -0.1917
     33 C22        25.9469   -0.3388   43.2756 C.ar        1 XNC      -0.0061
     34 C21        25.0589   -1.3139   42.7948 C.ar        1 XNC       0.0849
     35 C20        24.7978   -1.3835   41.4125 C.ar        1 XNC      -0.0435
     36 C19        25.4005   -0.4690   40.5295 C.ar        1 XNC      -0.0671
     37 O24        24.5313   -2.1907   43.7008 O.3         1 XNC      -0.3110
     38 C25        23.1204   -2.0825   43.9822 C.3         1 XNC       0.1027
     39 C26        22.6717   -0.7551   44.4886 C.ar        1 XNC      -0.0131
     40 C31        23.4874    0.0219   45.3478 C.ar        1 XNC      -0.0578
     41 C30        23.0445    1.2828   45.8005 C.ar        1 XNC      -0.0685
     42 C29        21.7953    1.7867   45.3946 C.ar        1 XNC      -0.0687
     43 C28        20.9660    1.0142   44.5633 C.ar        1 XNC      -0.0685
     44 C27        21.4019   -0.2467   44.1231 C.ar        1 XNC      -0.0578
     45 H1         24.9988    2.4421   35.3818 H           1 XNC       0.0705
     46 H2         25.7587    2.2000   33.0971 H           1 XNC       0.0729
     47 H3         28.0511    1.5282   32.6413 H           1 XNC       0.0684
     48 H4         30.5173    0.8087   35.4018 H           1 XNC       0.0421
     49 H5         30.5046    1.6364   33.8393 H           1 XNC       0.0421
     50 H6         29.9800   -0.0573   33.9488 H           1 XNC       0.0421
     51 H7         25.7883   -0.6597   36.9955 H           1 XNC       0.0382
     52 H8         26.5041   -2.9089   36.5579 H           1 XNC       0.0451
     53 H9         26.1319    2.3268   40.1306 H           1 XNC       0.0812
     54 H10        30.0712    4.1105   42.1817 H           1 XNC       0.0503
     55 H11        30.1666    5.2511   40.8347 H           1 XNC       0.0503
     56 H12        31.8704    2.8840   38.4018 H           1 XNC       0.0237
     57 H13        31.3811    4.5655   38.6584 H           1 XNC       0.0237
     58 H14        30.1639    3.3206   38.3677 H           1 XNC       0.0237
     59 H15        32.4516    3.3646   42.0912 H           1 XNC       0.0237
     60 H16        32.7267    4.6021   40.8575 H           1 XNC       0.0237
     61 H17        33.2074    2.9275   40.5559 H           1 XNC       0.0237
     62 H18        30.6153    1.6378   41.7869 H           1 XNC       0.0444
     63 H19        31.4378    1.1432   40.3275 H           1 XNC       0.0444
     64 H20        30.1397   -0.4452   40.0743 H           1 XNC       0.2009
     65 H21        30.3026   -2.0486   40.0108 H           1 XNC       0.2432
     66 H22        28.4636   -3.7978   37.6479 H           1 XNC       0.0389
     67 H23        26.1290   -0.2847   44.2800 H           1 XNC       0.0510
     68 H24        24.1501   -2.0872   41.0510 H           1 XNC       0.0491
     69 H25        25.1502   -0.5186   39.5373 H           1 XNC       0.0520
     70 H26        22.9012   -2.8216   44.7537 H           1 XNC       0.0776
     71 H27        22.5547   -2.3809   43.0945 H           1 XNC       0.0776
     72 H28        24.4124   -0.3176   45.6291 H           1 XNC       0.0557
     73 H29        23.6363    1.8447   46.4199 H           1 XNC       0.0599
     74 H30        21.4879    2.7104   45.7032 H           1 XNC       0.0559
     75 H31        20.0526    1.3681   44.2756 H           1 XNC       0.0599
     76 H32        20.7768   -0.7999   43.5310 H           1 XNC       0.0557
@<TRIPOS>BOND
     1     1     2   2
     2     2     3   1
     3     2    10  am
     4     3     4  ar
     5     3     9  ar
     6     4     5  ar
     7     5     6  ar
     8     6     7  ar
     9     7     8   1
    10     7     9  ar
    11    10    11   1
    12    10    14   1
    13    11    12  ar
    14    11    26  ar
    15    12    13  ar
    16    13    29  ar
    17    14    15   1
    18    14    30   1
    19    15    16   1
    20    15    24   2
    21    16    17   2
    22    16    18   2
    23    16    19   1
    24    19    20   1
    25    20    21   1
    26    20    22   1
    27    20    23   1
    28    23    24   1
    29    24    25   1
    30    25    26   1
    31    26    27  ar
    32    27    28   1
    33    27    29  ar
    34    30    31  ar
    35    30    36  ar
    36    31    32   1
    37    31    33  ar
    38    33    34  ar
    39    34    35  ar
    40    34    37   1
    41    35    36  ar
    42    37    38   1
    43    38    39   1
    44    39    40  ar
    45    39    44  ar
    46    40    41  ar
    47    41    42  ar
    48    42    43  ar
    49    43    44  ar
    50     4    45   1
    51     5    46   1
    52     6    47   1
    53     8    48   1
    54     8    49   1
    55     8    50   1
    56    12    51   1
    57    13    52   1
    58    14    53   1
    59    19    54   1
    60    19    55   1
    61    21    56   1
    62    21    57   1
    63    21    58   1
    64    22    59   1
    65    22    60   1
    66    22    61   1
    67    23    62   1
    68    23    63   1
    69    25    64   1
    70    28    65   1
    71    29    66   1
    72    33    67   1
    73    35    68   1
    74    36    69   1
    75    38    70   1
    76    38    71   1
    77    40    72   1
    78    41    73   1
    79    42    74   1
    80    43    75   1
    81    44    76   1
@<TRIPOS>SUBSTRUCTURE
     1  XNC      2

