@<TRIPOS>MOLECULE
3gnw_ligand_059
    76    81
SMALL
GAST_HUCK
****
This file was generated by PARSER (from files_GN.cpp)

@<TRIPOS>ATOM
      1 O35        37.6304    0.6167   43.7344 O.2         1 XNC      -0.3687
      2 C16        37.3376    1.7175   44.1901 C.2         1 XNC       0.2510
      3 C17        37.1627    1.7052   45.5759 C.ar        1 XNC       0.1194
      4 C43        38.1001    1.0800   46.4351 C.ar        1 XNC      -0.0209
      5 C42        37.8599    1.0340   47.8198 C.ar        1 XNC      -0.0435
      6 C41        36.6859    1.5979   48.3471 C.ar        1 XNC      -0.0287
      7 C40        35.7607    2.2034   47.4733 C.ar        1 XNC       0.0301
      8 C44        34.5088    2.7972   47.9729 C.3         1 XNC      -0.0144
      9 N39        36.0425    2.2228   46.1413 N.ar        1 XNC      -0.2781
     10 N7         37.2745    2.7814   43.3482 N.am        1 XNC      -0.2078
     11 C4         37.0383    4.0555   43.8216 C.ar        1 XNC       0.0880
     12 C3         35.7379    4.4103   44.2581 C.ar        1 XNC      -0.0607
     13 C2         35.4742    5.6903   44.7686 C.ar        1 XNC      -0.0955
     14 C8         37.7539    2.6914   41.9632 C.3         1 XNC       0.1162
     15 C9         39.2239    2.7901   42.0066 C.2         1 XNC       0.0894
     16 S12        40.1161    1.4758   41.3284 S.o2        1 XNC      -0.0239
     17 O32        39.5973    1.1050   39.8697 O.2         1 XNC      -0.1768
     18 O33        39.9737    0.1665   42.2225 O.2         1 XNC      -0.1768
     19 C13        41.8801    1.8523   41.2767 C.3         1 XNC       0.0705
     20 C14        42.2692    2.9025   42.3626 C.3         1 XNC      -0.0050
     21 C37        42.2181    2.2981   43.8041 C.3         1 XNC      -0.0565
     22 C38        43.7307    3.3848   42.0878 C.3         1 XNC      -0.0565
     23 C15        41.2906    4.1216   42.2494 C.3         1 XNC       0.0036
     24 C10        39.8693    3.8619   42.5429 C.2         1 XNC       0.0422
     25 N11        39.2845    4.8683   43.2314 N.pl3       1 XNC      -0.2908
     26 C5         38.0543    5.0472   43.7850 C.ar        1 XNC       0.1100
     27 C6         37.7850    6.3273   44.3352 C.ar        1 XNC       0.0976
     28 O36        38.7448    7.2857   44.4105 O.3         1 XNC      -0.3423
     29 C1         36.5034    6.6419   44.8246 C.ar        1 XNC      -0.0580
     30 C18        37.0753    3.5872   40.9515 C.ar        1 XNC       0.0130
     31 C23        35.6578    3.5825   40.8392 C.ar        1 XNC       0.1283
     32 F34        34.9194    2.8004   41.5848 F           1 XNC      -0.1917
     33 C22        34.9886    4.4126   39.9197 C.ar        1 XNC      -0.0061
     34 C21        35.7062    5.2481   39.0349 C.ar        1 XNC       0.0849
     35 C20        37.1203    5.2094   39.0882 C.ar        1 XNC      -0.0435
     36 C19        37.7827    4.4106   40.0277 C.ar        1 XNC      -0.0671
     37 O24        34.9436    6.0320   38.2016 O.3         1 XNC      -0.3110
     38 C25        35.4908    6.9850   37.2627 C.3         1 XNC       0.1027
     39 C26        36.2879    8.0663   37.8980 C.ar        1 XNC      -0.0131
     40 C31        35.7732    8.7645   39.0163 C.ar        1 XNC      -0.0578
     41 C30        36.5485    9.7390   39.6690 C.ar        1 XNC      -0.0685
     42 C29        37.8389   10.0503   39.2029 C.ar        1 XNC      -0.0687
     43 C28        38.3527    9.3812   38.0773 C.ar        1 XNC      -0.0685
     44 C27        37.5818    8.4010   37.4267 C.ar        1 XNC      -0.0578
     45 H1         38.9566    0.6664   46.0633 H           1 XNC       0.0705
     46 H2         38.5406    0.5894   48.4422 H           1 XNC       0.0729
     47 H3         36.5104    1.5604   49.3557 H           1 XNC       0.0684
     48 H4         33.9296    3.2382   47.1602 H           1 XNC       0.0421
     49 H5         34.7290    3.5788   48.7028 H           1 XNC       0.0421
     50 H6         33.9006    2.0279   48.4524 H           1 XNC       0.0421
     51 H7         34.9753    3.7309   44.2154 H           1 XNC       0.0382
     52 H8         34.5371    5.9248   45.1053 H           1 XNC       0.0451
     53 H9         37.4798    1.7023   41.5862 H           1 XNC       0.0812
     54 H10        42.0982    2.2426   40.2792 H           1 XNC       0.0503
     55 H11        42.4493    0.9286   41.4059 H           1 XNC       0.0503
     56 H12        42.5047    3.0528   44.5367 H           1 XNC       0.0237
     57 H13        42.9025    1.4539   43.8955 H           1 XNC       0.0237
     58 H14        41.2163    1.9518   44.0601 H           1 XNC       0.0237
     59 H15        43.8117    3.8500   41.1023 H           1 XNC       0.0237
     60 H16        44.4265    2.5450   42.1224 H           1 XNC       0.0237
     61 H17        44.0468    4.1183   42.8332 H           1 XNC       0.0237
     62 H18        41.3312    4.5140   41.2275 H           1 XNC       0.0444
     63 H19        41.6800    4.9206   42.8940 H           1 XNC       0.0444
     64 H20        39.8599    5.6437   43.3356 H           1 XNC       0.2009
     65 H21        38.3128    8.1082   44.0967 H           1 XNC       0.2432
     66 H22        36.3123    7.5699   45.2128 H           1 XNC       0.0389
     67 H23        33.9585    4.4066   39.8843 H           1 XNC       0.0510
     68 H24        37.6828    5.7610   38.4400 H           1 XNC       0.0491
     69 H25        38.8060    4.4279   40.0190 H           1 XNC       0.0520
     70 H26        34.6479    7.4596   36.7453 H           1 XNC       0.0776
     71 H27        36.0731    6.4399   36.5118 H           1 XNC       0.0776
     72 H28        34.8389    8.5526   39.3739 H           1 XNC       0.0557
     73 H29        36.1717   10.2290   40.4818 H           1 XNC       0.0599
     74 H30        38.3965   10.7649   39.6725 H           1 XNC       0.0559
     75 H31        39.2883    9.6081   37.7316 H           1 XNC       0.0599
     76 H32        37.9779    7.9210   36.6126 H           1 XNC       0.0557
@<TRIPOS>BOND
     1     1     2   2
     2     2     3   1
     3     2    10  am
     4     3     4  ar
     5     3     9  ar
     6     4     5  ar
     7     5     6  ar
     8     6     7  ar
     9     7     8   1
    10     7     9  ar
    11    10    11   1
    12    10    14   1
    13    11    12  ar
    14    11    26  ar
    15    12    13  ar
    16    13    29  ar
    17    14    15   1
    18    14    30   1
    19    15    16   1
    20    15    24   2
    21    16    17   2
    22    16    18   2
    23    16    19   1
    24    19    20   1
    25    20    21   1
    26    20    22   1
    27    20    23   1
    28    23    24   1
    29    24    25   1
    30    25    26   1
    31    26    27  ar
    32    27    28   1
    33    27    29  ar
    34    30    31  ar
    35    30    36  ar
    36    31    32   1
    37    31    33  ar
    38    33    34  ar
    39    34    35  ar
    40    34    37   1
    41    35    36  ar
    42    37    38   1
    43    38    39   1
    44    39    40  ar
    45    39    44  ar
    46    40    41  ar
    47    41    42  ar
    48    42    43  ar
    49    43    44  ar
    50     4    45   1
    51     5    46   1
    52     6    47   1
    53     8    48   1
    54     8    49   1
    55     8    50   1
    56    12    51   1
    57    13    52   1
    58    14    53   1
    59    19    54   1
    60    19    55   1
    61    21    56   1
    62    21    57   1
    63    21    58   1
    64    22    59   1
    65    22    60   1
    66    22    61   1
    67    23    62   1
    68    23    63   1
    69    25    64   1
    70    28    65   1
    71    29    66   1
    72    33    67   1
    73    35    68   1
    74    36    69   1
    75    38    70   1
    76    38    71   1
    77    40    72   1
    78    41    73   1
    79    42    74   1
    80    43    75   1
    81    44    76   1
@<TRIPOS>SUBSTRUCTURE
     1  XNC      2

