@<TRIPOS>MOLECULE
3gnw_ligand_001
    76    81
SMALL
GAST_HUCK
****
This file was generated by PARSER (from files_GN.cpp)

@<TRIPOS>ATOM
      1 O35        27.9870    1.1576   44.5388 O.2         1 XNC      -0.3687
      2 C16        27.1336    0.9304   43.6823 C.2         1 XNC       0.2510
      3 C17        25.9035    0.5736   44.2166 C.ar        1 XNC       0.1194
      4 C43        25.1917    1.4816   45.0366 C.ar        1 XNC      -0.0209
      5 C42        23.9508    1.1020   45.5797 C.ar        1 XNC      -0.0435
      6 C41        23.4370   -0.1774   45.3139 C.ar        1 XNC      -0.0287
      7 C40        24.1822   -1.0709   44.5162 C.ar        1 XNC       0.0301
      8 C44        23.6720   -2.4325   44.2443 C.3         1 XNC      -0.0144
      9 N39        25.3797   -0.6628   43.9985 N.ar        1 XNC      -0.2781
     10 N7         27.4069    1.1078   42.3687 N.am        1 XNC      -0.2078
     11 C4         28.5865    1.7200   41.9966 C.ar        1 XNC       0.0880
     12 C3         28.8771    3.0279   42.4668 C.ar        1 XNC      -0.0607
     13 C2         30.0640    3.6727   42.0991 C.ar        1 XNC      -0.0955
     14 C8         26.5352    0.6968   41.2672 C.3         1 XNC       0.1162
     15 C9         26.9424   -0.6483   40.8141 C.2         1 XNC       0.0894
     16 S12        25.6515   -1.7514   40.4639 S.o2        1 XNC      -0.0239
     17 O32        24.8751   -1.2662   39.1513 O.2         1 XNC      -0.1768
     18 O33        24.5490   -1.8405   41.6130 O.2         1 XNC      -0.1768
     19 C13        26.3182   -3.4048   40.1770 C.3         1 XNC       0.0705
     20 C14        27.7039   -3.3392   39.4687 C.3         1 XNC      -0.0050
     21 C37        28.3209   -4.7784   39.4453 C.3         1 XNC      -0.0565
     22 C38        27.5731   -2.8680   37.9783 C.3         1 XNC      -0.0565
     23 C15        28.6463   -2.3952   40.2971 C.3         1 XNC       0.0036
     24 C10        28.2335   -1.0022   40.5698 C.2         1 XNC       0.0422
     25 N11        29.2836   -0.1557   40.5974 N.pl3       1 XNC      -0.2908
     26 C5         29.4884    1.0848   41.1091 C.ar        1 XNC       0.1100
     27 C6         30.6884    1.7449   40.7453 C.ar        1 XNC       0.0976
     28 O36        31.5814    1.2048   39.8817 O.3         1 XNC      -0.3423
     29 C1         30.9701    3.0333   41.2385 C.ar        1 XNC      -0.0580
     30 C18        26.3362    1.7772   40.2205 C.ar        1 XNC       0.0130
     31 C23        26.6337    1.6587   38.8301 C.ar        1 XNC       0.1283
     32 F34        27.1462    0.5837   38.3003 F           1 XNC      -0.1917
     33 C22        26.3892    2.7244   37.9418 C.ar        1 XNC      -0.0061
     34 C21        25.8446    3.9315   38.4070 C.ar        1 XNC       0.0849
     35 C20        25.5969    4.0893   39.7799 C.ar        1 XNC      -0.0435
     36 C19        25.8281    3.0257   40.6647 C.ar        1 XNC      -0.0671
     37 O24        25.5791    4.9595   37.5415 O.3         1 XNC      -0.3110
     38 C25        24.3527    4.8292   36.7861 C.3         1 XNC       0.1027
     39 C26        24.6829    4.7015   35.3455 C.ar        1 XNC      -0.0131
     40 C31        25.0829    5.8409   34.6049 C.ar        1 XNC      -0.0578
     41 C30        25.4046    5.7314   33.2392 C.ar        1 XNC      -0.0685
     42 C29        25.3377    4.4815   32.5968 C.ar        1 XNC      -0.0687
     43 C28        24.9520    3.3395   33.3229 C.ar        1 XNC      -0.0685
     44 C27        24.6217    3.4517   34.6867 C.ar        1 XNC      -0.0578
     45 H1         25.5603    2.4150   45.2398 H           1 XNC       0.0705
     46 H2         23.4257    1.7590   46.1635 H           1 XNC       0.0729
     47 H3         22.5356   -0.4516   45.7155 H           1 XNC       0.0684
     48 H4         24.3732   -3.0004   43.6302 H           1 XNC       0.0421
     49 H5         22.7192   -2.3802   43.7115 H           1 XNC       0.0421
     50 H6         23.5130   -2.9699   45.1786 H           1 XNC       0.0421
     51 H7         28.2212    3.5110   43.0842 H           1 XNC       0.0382
     52 H8         30.2695    4.6126   42.4428 H           1 XNC       0.0451
     53 H9         25.5233    0.5894   41.6692 H           1 XNC       0.0812
     54 H10        25.5963   -3.9945   39.6103 H           1 XNC       0.0503
     55 H11        26.4310   -3.8806   41.1593 H           1 XNC       0.0503
     56 H12        29.2890   -4.7737   38.9426 H           1 XNC       0.0237
     57 H13        27.6639   -5.4711   38.9148 H           1 XNC       0.0237
     58 H14        28.4684   -5.1576   40.4567 H           1 XNC       0.0237
     59 H15        27.1508   -1.8643   37.9151 H           1 XNC       0.0237
     60 H16        26.9277   -3.5428   37.4145 H           1 XNC       0.0237
     61 H17        28.5519   -2.8517   37.4959 H           1 XNC       0.0237
     62 H18        29.6280   -2.4185   39.8082 H           1 XNC       0.0444
     63 H19        28.8092   -2.8474   41.2795 H           1 XNC       0.0444
     64 H20        30.0866   -0.5254   40.2003 H           1 XNC       0.2009
     65 H21        31.8411    0.3526   40.2798 H           1 XNC       0.2432
     66 H22        31.8332    3.5104   40.9607 H           1 XNC       0.0389
     67 H23        26.5939    2.6175   36.9435 H           1 XNC       0.0510
     68 H24        25.2294    4.9733   40.1313 H           1 XNC       0.0491
     69 H25        25.6174    3.1712   41.6530 H           1 XNC       0.0520
     70 H26        23.7663    5.7353   36.9407 H           1 XNC       0.0776
     71 H27        23.7223    3.9919   37.1132 H           1 XNC       0.0776
     72 H28        25.1366    6.7580   35.0552 H           1 XNC       0.0557
     73 H29        25.6796    6.5648   32.7088 H           1 XNC       0.0599
     74 H30        25.5663    4.4029   31.6020 H           1 XNC       0.0559
     75 H31        24.9110    2.4298   32.8576 H           1 XNC       0.0599
     76 H32        24.3469    2.6098   35.1968 H           1 XNC       0.0557
@<TRIPOS>BOND
     1     1     2   2
     2     2     3   1
     3     2    10  am
     4     3     4  ar
     5     3     9  ar
     6     4     5  ar
     7     5     6  ar
     8     6     7  ar
     9     7     8   1
    10     7     9  ar
    11    10    11   1
    12    10    14   1
    13    11    12  ar
    14    11    26  ar
    15    12    13  ar
    16    13    29  ar
    17    14    15   1
    18    14    30   1
    19    15    16   1
    20    15    24   2
    21    16    17   2
    22    16    18   2
    23    16    19   1
    24    19    20   1
    25    20    21   1
    26    20    22   1
    27    20    23   1
    28    23    24   1
    29    24    25   1
    30    25    26   1
    31    26    27  ar
    32    27    28   1
    33    27    29  ar
    34    30    31  ar
    35    30    36  ar
    36    31    32   1
    37    31    33  ar
    38    33    34  ar
    39    34    35  ar
    40    34    37   1
    41    35    36  ar
    42    37    38   1
    43    38    39   1
    44    39    40  ar
    45    39    44  ar
    46    40    41  ar
    47    41    42  ar
    48    42    43  ar
    49    43    44  ar
    50     4    45   1
    51     5    46   1
    52     6    47   1
    53     8    48   1
    54     8    49   1
    55     8    50   1
    56    12    51   1
    57    13    52   1
    58    14    53   1
    59    19    54   1
    60    19    55   1
    61    21    56   1
    62    21    57   1
    63    21    58   1
    64    22    59   1
    65    22    60   1
    66    22    61   1
    67    23    62   1
    68    23    63   1
    69    25    64   1
    70    28    65   1
    71    29    66   1
    72    33    67   1
    73    35    68   1
    74    36    69   1
    75    38    70   1
    76    38    71   1
    77    40    72   1
    78    41    73   1
    79    42    74   1
    80    43    75   1
    81    44    76   1
@<TRIPOS>SUBSTRUCTURE
     1  XNC      2

