@<TRIPOS>MOLECULE
3gnw_ligand_034
    76    81
SMALL
GAST_HUCK
****
This file was generated by PARSER (from files_GN.cpp)

@<TRIPOS>ATOM
      1 O35        28.6693    0.2523   34.4367 O.2         1 XNC      -0.3687
      2 C16        29.0105    1.0902   35.2702 C.2         1 XNC       0.2510
      3 C17        30.4144    1.2824   35.3197 C.ar        1 XNC       0.1194
      4 C43        31.3484    0.3996   34.7035 C.ar        1 XNC      -0.0209
      5 C42        32.7323    0.6402   34.7812 C.ar        1 XNC      -0.0435
      6 C41        33.2098    1.7560   35.4824 C.ar        1 XNC      -0.0287
      7 C40        32.2820    2.6449   36.0633 C.ar        1 XNC       0.0301
      8 C44        32.7076    3.8235   36.8384 C.3         1 XNC      -0.0144
      9 N39        30.9636    2.3637   35.9373 N.ar        1 XNC      -0.2781
     10 N7         28.0026    1.6664   35.9960 N.am        1 XNC      -0.2078
     11 C4         26.6711    1.5561   35.5490 C.ar        1 XNC       0.0880
     12 C3         26.3676    1.8192   34.1830 C.ar        1 XNC      -0.0607
     13 C2         25.0744    1.6492   33.6638 C.ar        1 XNC      -0.0955
     14 C8         28.2072    2.3567   37.2836 C.3         1 XNC       0.1162
     15 C9         27.9000    1.4509   38.4145 C.2         1 XNC       0.0894
     16 S12        29.1907    1.1176   39.5196 S.o2        1 XNC      -0.0239
     17 O32        29.8197    2.4705   40.0750 O.2         1 XNC      -0.1768
     18 O33        30.3275    0.3550   38.7108 O.2         1 XNC      -0.1768
     19 C13        28.6417    0.0879   40.8953 C.3         1 XNC       0.0705
     20 C14        27.4497   -0.8222   40.4700 C.3         1 XNC      -0.0050
     21 C37        27.9071   -1.9646   39.5037 C.3         1 XNC      -0.0565
     22 C38        26.8478   -1.4937   41.7484 C.3         1 XNC      -0.0565
     23 C15        26.3550    0.0874   39.8105 C.3         1 XNC       0.0036
     24 C10        26.7177    0.8093   38.5721 C.2         1 XNC       0.0422
     25 N11        25.6921    0.8980   37.7198 N.pl3       1 XNC      -0.2908
     26 C5         25.5853    1.2003   36.4057 C.ar        1 XNC       0.1100
     27 C6         24.2668    1.0888   35.8844 C.ar        1 XNC       0.0976
     28 O36        23.1839    0.7845   36.6530 O.3         1 XNC      -0.3423
     29 C1         24.0276    1.2855   34.5168 C.ar        1 XNC      -0.0580
     30 C18        27.6462    3.7591   37.2883 C.ar        1 XNC       0.0130
     31 C23        26.6114    4.2404   38.1405 C.ar        1 XNC       0.1283
     32 F34        26.0505    3.5176   39.0731 F           1 XNC      -0.1917
     33 C22        26.1189    5.5505   37.9925 C.ar        1 XNC      -0.0061
     34 C21        26.6730    6.4337   37.0502 C.ar        1 XNC       0.0849
     35 C20        27.7822    6.0146   36.2892 C.ar        1 XNC      -0.0435
     36 C19        28.2292    4.6859   36.3798 C.ar        1 XNC      -0.0671
     37 O24        26.0246    7.6306   36.8560 O.3         1 XNC      -0.3110
     38 C25        25.6907    8.0334   35.5057 C.3         1 XNC       0.1027
     39 C26        25.3348    6.9432   34.5492 C.ar        1 XNC      -0.0131
     40 C31        24.2684    6.0492   34.8164 C.ar        1 XNC      -0.0578
     41 C30        23.9799    4.9956   33.9237 C.ar        1 XNC      -0.0685
     42 C29        24.7642    4.8116   32.7695 C.ar        1 XNC      -0.0687
     43 C28        25.8350    5.6809   32.5059 C.ar        1 XNC      -0.0685
     44 C27        26.1191    6.7369   33.3877 C.ar        1 XNC      -0.0578
     45 H1         31.0349   -0.4272   34.1921 H           1 XNC       0.0705
     46 H2         33.3925   -0.0019   34.3330 H           1 XNC       0.0729
     47 H3         34.2159    1.9300   35.5463 H           1 XNC       0.0684
     48 H4         31.8435    4.4000   37.1781 H           1 XNC       0.0421
     49 H5         33.3365    4.4716   36.2269 H           1 XNC       0.0421
     50 H6         33.2745    3.5059   37.7160 H           1 XNC       0.0421
     51 H7         27.1032    2.1023   33.5333 H           1 XNC       0.0382
     52 H8         24.8936    1.7921   32.6701 H           1 XNC       0.0451
     53 H9         29.2541    2.5768   37.4163 H           1 XNC       0.0812
     54 H10        28.3298    0.7641   41.6947 H           1 XNC       0.0503
     55 H11        29.4802   -0.5014   41.2715 H           1 XNC       0.0503
     56 H12        27.0683   -2.6166   39.2507 H           1 XNC       0.0237
     57 H13        28.6829   -2.5750   39.9731 H           1 XNC       0.0237
     58 H14        28.3117   -1.5691   38.5724 H           1 XNC       0.0237
     59 H15        26.5271   -0.7456   42.4764 H           1 XNC       0.0237
     60 H16        27.5880   -2.1377   42.2262 H           1 XNC       0.0237
     61 H17        25.9814   -2.1088   41.4963 H           1 XNC       0.0237
     62 H18        26.0539    0.8486   40.5358 H           1 XNC       0.0444
     63 H19        25.4736   -0.5441   39.6481 H           1 XNC       0.0444
     64 H20        24.8510    0.6357   38.1213 H           1 XNC       0.2009
     65 H21        23.3338   -0.1364   36.9536 H           1 XNC       0.2432
     66 H22        23.0898    1.1503   34.1381 H           1 XNC       0.0389
     67 H23        25.3279    5.8591   38.5610 H           1 XNC       0.0510
     68 H24        28.2156    6.6565   35.6204 H           1 XNC       0.0491
     69 H25        28.9979    4.3992   35.7648 H           1 XNC       0.0520
     70 H26        26.5302    8.6224   35.1230 H           1 XNC       0.0776
     71 H27        24.8414    8.7160   35.5766 H           1 XNC       0.0776
     72 H28        23.7111    6.1435   35.6708 H           1 XNC       0.0557
     73 H29        23.2010    4.3607   34.1128 H           1 XNC       0.0599
     74 H30        24.5672    4.0463   32.1202 H           1 XNC       0.0559
     75 H31        26.4041    5.5432   31.6705 H           1 XNC       0.0599
     76 H32        26.9211    7.3392   33.1833 H           1 XNC       0.0557
@<TRIPOS>BOND
     1     1     2   2
     2     2     3   1
     3     2    10  am
     4     3     4  ar
     5     3     9  ar
     6     4     5  ar
     7     5     6  ar
     8     6     7  ar
     9     7     8   1
    10     7     9  ar
    11    10    11   1
    12    10    14   1
    13    11    12  ar
    14    11    26  ar
    15    12    13  ar
    16    13    29  ar
    17    14    15   1
    18    14    30   1
    19    15    16   1
    20    15    24   2
    21    16    17   2
    22    16    18   2
    23    16    19   1
    24    19    20   1
    25    20    21   1
    26    20    22   1
    27    20    23   1
    28    23    24   1
    29    24    25   1
    30    25    26   1
    31    26    27  ar
    32    27    28   1
    33    27    29  ar
    34    30    31  ar
    35    30    36  ar
    36    31    32   1
    37    31    33  ar
    38    33    34  ar
    39    34    35  ar
    40    34    37   1
    41    35    36  ar
    42    37    38   1
    43    38    39   1
    44    39    40  ar
    45    39    44  ar
    46    40    41  ar
    47    41    42  ar
    48    42    43  ar
    49    43    44  ar
    50     4    45   1
    51     5    46   1
    52     6    47   1
    53     8    48   1
    54     8    49   1
    55     8    50   1
    56    12    51   1
    57    13    52   1
    58    14    53   1
    59    19    54   1
    60    19    55   1
    61    21    56   1
    62    21    57   1
    63    21    58   1
    64    22    59   1
    65    22    60   1
    66    22    61   1
    67    23    62   1
    68    23    63   1
    69    25    64   1
    70    28    65   1
    71    29    66   1
    72    33    67   1
    73    35    68   1
    74    36    69   1
    75    38    70   1
    76    38    71   1
    77    40    72   1
    78    41    73   1
    79    42    74   1
    80    43    75   1
    81    44    76   1
@<TRIPOS>SUBSTRUCTURE
     1  XNC      2

