@<TRIPOS>MOLECULE
3gnw_ligand_081
    76    81
SMALL
GAST_HUCK
****
This file was generated by PARSER (from files_GN.cpp)

@<TRIPOS>ATOM
      1 O35        30.3128    5.3904   42.5560 O.2         1 XNC      -0.3687
      2 C16        30.5314    4.6274   41.6171 C.2         1 XNC       0.2510
      3 C17        31.8361    4.6837   41.1534 C.ar        1 XNC       0.1194
      4 C43        32.3839    5.8247   40.5237 C.ar        1 XNC      -0.0209
      5 C42        33.7495    5.8336   40.1768 C.ar        1 XNC      -0.0435
      6 C41        34.5519    4.7164   40.4669 C.ar        1 XNC      -0.0287
      7 C40        33.9846    3.6060   41.1287 C.ar        1 XNC       0.0301
      8 C44        34.8130    2.4655   41.5634 C.3         1 XNC      -0.0144
      9 N39        32.6613    3.6370   41.4358 N.ar        1 XNC      -0.2781
     10 N7         29.5674    3.7834   41.1758 N.am        1 XNC      -0.2078
     11 C4         28.4292    3.5795   41.9431 C.ar        1 XNC       0.0880
     12 C3         28.5717    3.0576   43.2535 C.ar        1 XNC      -0.0607
     13 C2         27.4479    2.7978   44.0565 C.ar        1 XNC      -0.0955
     14 C8         29.5337    3.2624   39.8009 C.3         1 XNC       0.1162
     15 C9         28.9034    4.3250   38.9857 C.2         1 XNC       0.0894
     16 S12        29.7601    4.8605   37.5957 S.o2        1 XNC      -0.0239
     17 O32        29.9842    3.6108   36.6224 O.2         1 XNC      -0.1768
     18 O33        31.2033    5.3980   38.0129 O.2         1 XNC      -0.1768
     19 C13        28.9111    6.1863   36.7232 C.3         1 XNC       0.0705
     20 C14        27.3868    6.2417   37.0673 C.3         1 XNC      -0.0050
     21 C37        26.8255    7.6382   36.6285 C.3         1 XNC      -0.0565
     22 C38        26.5899    5.1507   36.2859 C.3         1 XNC      -0.0565
     23 C15        27.2005    6.0923   38.6172 C.3         1 XNC       0.0036
     24 C10        27.6928    4.8701   39.2716 C.2         1 XNC       0.0422
     25 N11        26.8717    4.4087   40.2321 N.pl3       1 XNC      -0.2908
     26 C5         27.1244    3.8371   41.4403 C.ar        1 XNC       0.1100
     27 C6         25.9961    3.5666   42.2585 C.ar        1 XNC       0.0976
     28 O36        24.7402    3.8101   41.8016 O.3         1 XNC      -0.3423
     29 C1         26.1641    3.0395   43.5539 C.ar        1 XNC      -0.0580
     30 C18        29.0166    1.8439   39.6526 C.ar        1 XNC       0.0130
     31 C23        28.2728    1.3563   38.5315 C.ar        1 XNC       0.1283
     32 F34        27.9681    2.1014   37.4970 F           1 XNC      -0.1917
     33 C22        27.8946   -0.0001   38.4500 C.ar        1 XNC      -0.0061
     34 C21        28.2426   -0.9206   39.4636 C.ar        1 XNC       0.0849
     35 C20        28.9674   -0.4442   40.5796 C.ar        1 XNC      -0.0435
     36 C19        29.3615    0.9050   40.6667 C.ar        1 XNC      -0.0671
     37 O24        27.8733   -2.2399   39.3743 O.3         1 XNC      -0.3110
     38 C25        28.6360   -2.9710   38.3945 C.3         1 XNC       0.1027
     39 C26        28.1943   -4.3878   38.3888 C.ar        1 XNC      -0.0131
     40 C31        27.5017   -4.9404   37.2824 C.ar        1 XNC      -0.0578
     41 C30        27.1132   -6.2942   37.2912 C.ar        1 XNC      -0.0685
     42 C29        27.4077   -7.1070   38.4034 C.ar        1 XNC      -0.0687
     43 C28        28.0896   -6.5651   39.5086 C.ar        1 XNC      -0.0685
     44 C27        28.4756   -5.2129   39.5033 C.ar        1 XNC      -0.0578
     45 H1         31.8111    6.6541   40.3350 H           1 XNC       0.0705
     46 H2         34.1531    6.6518   39.7149 H           1 XNC       0.0729
     47 H3         35.5447    4.7280   40.2189 H           1 XNC       0.0684
     48 H4         34.2031    1.7156   42.0698 H           1 XNC       0.0421
     49 H5         35.5800    2.8174   42.2535 H           1 XNC       0.0421
     50 H6         35.2868    2.0103   40.6954 H           1 XNC       0.0421
     51 H7         29.4992    2.8766   43.6377 H           1 XNC       0.0382
     52 H8         27.5669    2.4212   44.9977 H           1 XNC       0.0451
     53 H9         30.5643    3.1513   39.4579 H           1 XNC       0.0812
     54 H10        29.0691    6.0694   35.6462 H           1 XNC       0.0503
     55 H11        29.3954    7.1217   37.0226 H           1 XNC       0.0503
     56 H12        25.7531    7.7109   36.8353 H           1 XNC       0.0237
     57 H13        26.9739    7.8028   35.5567 H           1 XNC       0.0237
     58 H14        27.3231    8.4527   37.1635 H           1 XNC       0.0237
     59 H15        27.0484    4.1716   36.3995 H           1 XNC       0.0237
     60 H16        26.5590    5.3770   35.2116 H           1 XNC       0.0237
     61 H17        25.5541    5.0993   36.6440 H           1 XNC       0.0237
     62 H18        26.1370    6.2532   38.8413 H           1 XNC       0.0444
     63 H19        27.7342    6.9128   39.1016 H           1 XNC       0.0444
     64 H20        25.9377    4.6255   40.0888 H           1 XNC       0.2009
     65 H21        24.2459    4.1806   42.5642 H           1 XNC       0.2432
     66 H22        25.3491    2.8458   44.1380 H           1 XNC       0.0389
     67 H23        27.3550   -0.3216   37.6413 H           1 XNC       0.0510
     68 H24        29.2201   -1.0966   41.3328 H           1 XNC       0.0491
     69 H25        29.9081    1.2103   41.4836 H           1 XNC       0.0520
     70 H26        29.7059   -2.9398   38.6409 H           1 XNC       0.0776
     71 H27        28.4898   -2.5242   37.4062 H           1 XNC       0.0776
     72 H28        27.2802   -4.3645   36.4638 H           1 XNC       0.0557
     73 H29        26.6076   -6.6845   36.4957 H           1 XNC       0.0599
     74 H30        27.1120   -8.0897   38.4136 H           1 XNC       0.0559
     75 H31        28.2978   -7.1532   40.3176 H           1 XNC       0.0599
     76 H32        28.9750   -4.8311   40.3142 H           1 XNC       0.0557
@<TRIPOS>BOND
     1     1     2   2
     2     2     3   1
     3     2    10  am
     4     3     4  ar
     5     3     9  ar
     6     4     5  ar
     7     5     6  ar
     8     6     7  ar
     9     7     8   1
    10     7     9  ar
    11    10    11   1
    12    10    14   1
    13    11    12  ar
    14    11    26  ar
    15    12    13  ar
    16    13    29  ar
    17    14    15   1
    18    14    30   1
    19    15    16   1
    20    15    24   2
    21    16    17   2
    22    16    18   2
    23    16    19   1
    24    19    20   1
    25    20    21   1
    26    20    22   1
    27    20    23   1
    28    23    24   1
    29    24    25   1
    30    25    26   1
    31    26    27  ar
    32    27    28   1
    33    27    29  ar
    34    30    31  ar
    35    30    36  ar
    36    31    32   1
    37    31    33  ar
    38    33    34  ar
    39    34    35  ar
    40    34    37   1
    41    35    36  ar
    42    37    38   1
    43    38    39   1
    44    39    40  ar
    45    39    44  ar
    46    40    41  ar
    47    41    42  ar
    48    42    43  ar
    49    43    44  ar
    50     4    45   1
    51     5    46   1
    52     6    47   1
    53     8    48   1
    54     8    49   1
    55     8    50   1
    56    12    51   1
    57    13    52   1
    58    14    53   1
    59    19    54   1
    60    19    55   1
    61    21    56   1
    62    21    57   1
    63    21    58   1
    64    22    59   1
    65    22    60   1
    66    22    61   1
    67    23    62   1
    68    23    63   1
    69    25    64   1
    70    28    65   1
    71    29    66   1
    72    33    67   1
    73    35    68   1
    74    36    69   1
    75    38    70   1
    76    38    71   1
    77    40    72   1
    78    41    73   1
    79    42    74   1
    80    43    75   1
    81    44    76   1
@<TRIPOS>SUBSTRUCTURE
     1  XNC      2

