@<TRIPOS>MOLECULE
3gnw_ligand_027
    76    81
SMALL
GAST_HUCK
****
This file was generated by PARSER (from files_GN.cpp)

@<TRIPOS>ATOM
      1 O35        28.7859    8.2949   37.9303 O.2         1 XNC      -0.3687
      2 C16        28.5599    7.8968   36.7964 C.2         1 XNC       0.2510
      3 C17        28.7783    8.8607   35.8151 C.ar        1 XNC       0.1194
      4 C43        29.4435    8.6094   34.5916 C.ar        1 XNC      -0.0209
      5 C42        29.6428    9.6613   33.6754 C.ar        1 XNC      -0.0435
      6 C41        29.1980   10.9608   33.9896 C.ar        1 XNC      -0.0287
      7 C40        28.5550   11.1893   35.2217 C.ar        1 XNC       0.0301
      8 C44        28.0856   12.5255   35.6130 C.3         1 XNC      -0.0144
      9 N39        28.3804   10.1385   36.0657 N.ar        1 XNC      -0.2781
     10 N7         28.1724    6.6076   36.6039 N.am        1 XNC      -0.2078
     11 C4         27.7736    6.1481   35.3609 C.ar        1 XNC       0.0880
     12 C3         26.6890    6.7715   34.6970 C.ar        1 XNC      -0.0607
     13 C2         26.2783    6.3387   33.4276 C.ar        1 XNC      -0.0955
     14 C8         28.2260    5.6170   37.6860 C.3         1 XNC       0.1162
     15 C9         29.5705    5.0024   37.6288 C.2         1 XNC       0.0894
     16 S12        30.4876    5.0451   39.0884 S.o2        1 XNC      -0.0239
     17 O32        29.7246    4.3156   40.2747 O.2         1 XNC      -0.1768
     18 O33        30.7151    6.5573   39.5194 O.2         1 XNC      -0.1768
     19 C13        32.1052    4.2847   38.8481 C.3         1 XNC       0.0705
     20 C14        32.5566    4.4083   37.3614 C.3         1 XNC      -0.0050
     21 C37        32.8779    5.8925   36.9755 C.3         1 XNC      -0.0565
     22 C38        33.8656    3.5709   37.1664 C.3         1 XNC      -0.0565
     23 C15        31.4181    3.8123   36.4603 C.3         1 XNC       0.0036
     24 C10        30.0986    4.4657   36.4916 C.2         1 XNC       0.0422
     25 N11        29.4723    4.3773   35.3083 N.pl3       1 XNC      -0.2908
     26 C5         28.4342    5.0581   34.7409 C.ar        1 XNC       0.1100
     27 C6         28.0578    4.6700   33.4293 C.ar        1 XNC       0.0976
     28 O36        28.7731    3.7387   32.7334 O.3         1 XNC      -0.3423
     29 C1         26.9701    5.2942   32.7870 C.ar        1 XNC      -0.0580
     30 C18        27.0560    4.6708   37.8007 C.ar        1 XNC       0.0130
     31 C23        25.7253    5.1328   37.6011 C.ar        1 XNC       0.1283
     32 F34        25.4424    6.3999   37.4496 F           1 XNC      -0.1917
     33 C22        24.6449    4.2312   37.5784 C.ar        1 XNC      -0.0061
     34 C21        24.8325    2.8656   37.8616 C.ar        1 XNC       0.0849
     35 C20        26.1153    2.4387   38.2546 C.ar        1 XNC      -0.0435
     36 C19        27.2139    3.3211   38.1949 C.ar        1 XNC      -0.0671
     37 O24        23.7684    2.0171   37.6603 O.3         1 XNC      -0.3110
     38 C25        23.9896    0.7520   36.9868 C.3         1 XNC       0.1027
     39 C26        24.9452    0.8285   35.8442 C.ar        1 XNC      -0.0131
     40 C31        24.5525    1.4599   34.6407 C.ar        1 XNC      -0.0578
     41 C30        25.4954    1.7031   33.6239 C.ar        1 XNC      -0.0685
     42 C29        26.8372    1.3044   33.7974 C.ar        1 XNC      -0.0687
     43 C28        27.2323    0.6476   34.9784 C.ar        1 XNC      -0.0685
     44 C27        26.2908    0.4226   35.9989 C.ar        1 XNC      -0.0578
     45 H1         29.8102    7.6839   34.3646 H           1 XNC       0.0705
     46 H2         30.1283    9.4882   32.7889 H           1 XNC       0.0729
     47 H3         29.3531   11.7267   33.3272 H           1 XNC       0.0684
     48 H4         27.6012   12.5069   36.5928 H           1 XNC       0.0421
     49 H5         27.3694   12.8942   34.8782 H           1 XNC       0.0421
     50 H6         28.9270   13.2128   35.6643 H           1 XNC       0.0421
     51 H7         26.1839    7.5392   35.1337 H           1 XNC       0.0382
     52 H8         25.5016    6.7974   32.9520 H           1 XNC       0.0451
     53 H9         28.1254    6.1379   38.6429 H           1 XNC       0.0812
     54 H10        32.0150    3.2304   39.1264 H           1 XNC       0.0503
     55 H11        32.8246    4.7510   39.5254 H           1 XNC       0.0503
     56 H12        33.2347    5.9576   35.9466 H           1 XNC       0.0237
     57 H13        33.6511    6.2993   37.6310 H           1 XNC       0.0237
     58 H14        31.9991    6.5324   37.0583 H           1 XNC       0.0237
     59 H15        33.6938    2.5181   37.3947 H           1 XNC       0.0237
     60 H16        34.6581    3.9361   37.8225 H           1 XNC       0.0237
     61 H17        34.2193    3.6391   36.1359 H           1 XNC       0.0237
     62 H18        31.2558    2.7631   36.7332 H           1 XNC       0.0444
     63 H19        31.8036    3.8021   35.4310 H           1 XNC       0.0444
     64 H20        29.8633    3.7263   34.7112 H           1 XNC       0.2009
     65 H21        28.1510    3.3180   32.0997 H           1 XNC       0.2432
     66 H22        26.6850    5.0055   31.8523 H           1 XNC       0.0389
     67 H23        23.7042    4.5728   37.3394 H           1 XNC       0.0510
     68 H24        26.2764    1.4763   38.5278 H           1 XNC       0.0491
     69 H25        28.1263    2.9514   38.4458 H           1 XNC       0.0520
     70 H26        23.0276    0.3932   36.6099 H           1 XNC       0.0776
     71 H27        24.3156    0.0212   37.7344 H           1 XNC       0.0776
     72 H28        23.5837    1.7804   34.5112 H           1 XNC       0.0557
     73 H29        25.2127    2.1798   32.7657 H           1 XNC       0.0599
     74 H30        27.5282    1.5079   33.0812 H           1 XNC       0.0559
     75 H31        28.2030    0.3456   35.0956 H           1 XNC       0.0599
     76 H32        26.6031   -0.0162   36.8654 H           1 XNC       0.0557
@<TRIPOS>BOND
     1     1     2   2
     2     2     3   1
     3     2    10  am
     4     3     4  ar
     5     3     9  ar
     6     4     5  ar
     7     5     6  ar
     8     6     7  ar
     9     7     8   1
    10     7     9  ar
    11    10    11   1
    12    10    14   1
    13    11    12  ar
    14    11    26  ar
    15    12    13  ar
    16    13    29  ar
    17    14    15   1
    18    14    30   1
    19    15    16   1
    20    15    24   2
    21    16    17   2
    22    16    18   2
    23    16    19   1
    24    19    20   1
    25    20    21   1
    26    20    22   1
    27    20    23   1
    28    23    24   1
    29    24    25   1
    30    25    26   1
    31    26    27  ar
    32    27    28   1
    33    27    29  ar
    34    30    31  ar
    35    30    36  ar
    36    31    32   1
    37    31    33  ar
    38    33    34  ar
    39    34    35  ar
    40    34    37   1
    41    35    36  ar
    42    37    38   1
    43    38    39   1
    44    39    40  ar
    45    39    44  ar
    46    40    41  ar
    47    41    42  ar
    48    42    43  ar
    49    43    44  ar
    50     4    45   1
    51     5    46   1
    52     6    47   1
    53     8    48   1
    54     8    49   1
    55     8    50   1
    56    12    51   1
    57    13    52   1
    58    14    53   1
    59    19    54   1
    60    19    55   1
    61    21    56   1
    62    21    57   1
    63    21    58   1
    64    22    59   1
    65    22    60   1
    66    22    61   1
    67    23    62   1
    68    23    63   1
    69    25    64   1
    70    28    65   1
    71    29    66   1
    72    33    67   1
    73    35    68   1
    74    36    69   1
    75    38    70   1
    76    38    71   1
    77    40    72   1
    78    41    73   1
    79    42    74   1
    80    43    75   1
    81    44    76   1
@<TRIPOS>SUBSTRUCTURE
     1  XNC      2

