@<TRIPOS>MOLECULE
3gnw_ligand_069
    76    81
SMALL
GAST_HUCK
****
This file was generated by PARSER (from files_GN.cpp)

@<TRIPOS>ATOM
      1 O35        34.7687    3.5198   44.8515 O.2         1 XNC      -0.3687
      2 C16        34.1871    4.4656   44.3313 C.2         1 XNC       0.2510
      3 C17        33.7374    5.4035   45.2372 C.ar        1 XNC       0.1194
      4 C43        34.4241    6.6213   45.4422 C.ar        1 XNC      -0.0209
      5 C42        33.8986    7.5485   46.3599 C.ar        1 XNC      -0.0435
      6 C41        32.6956    7.2689   47.0349 C.ar        1 XNC      -0.0287
      7 C40        32.0254    6.0522   46.7787 C.ar        1 XNC       0.0301
      8 C44        30.7300    5.7003   47.3954 C.3         1 XNC      -0.0144
      9 N39        32.5769    5.1716   45.9030 N.ar        1 XNC      -0.2781
     10 N7         34.0993    4.5973   42.9899 N.am        1 XNC      -0.2078
     11 C4         33.4070    5.6418   42.4187 C.ar        1 XNC       0.0880
     12 C3         32.0067    5.7329   42.6072 C.ar        1 XNC      -0.0607
     13 C2         31.2689    6.7632   42.0034 C.ar        1 XNC      -0.0955
     14 C8         34.8699    3.7541   42.0771 C.3         1 XNC       0.1162
     15 C9         36.2028    4.3673   41.9351 C.2         1 XNC       0.0894
     16 S12        37.5407    3.3074   42.1781 S.o2        1 XNC      -0.0239
     17 O32        37.4477    2.0872   41.1636 O.2         1 XNC      -0.1768
     18 O33        37.5023    2.7204   43.6561 O.2         1 XNC      -0.1768
     19 C13        39.0995    4.1735   41.9393 C.3         1 XNC       0.0705
     20 C14        38.9331    5.7025   42.2043 C.3         1 XNC      -0.0050
     21 C37        38.7051    6.0036   43.7243 C.3         1 XNC      -0.0565
     22 C38        40.2494    6.4219   41.7640 C.3         1 XNC      -0.0565
     23 C15        37.7341    6.2246   41.3355 C.3         1 XNC       0.0036
     24 C10        36.3961    5.6756   41.6150 C.2         1 XNC       0.0422
     25 N11        35.4081    6.5550   41.3320 N.pl3       1 XNC      -0.2908
     26 C5         34.0736    6.5862   41.5982 C.ar        1 XNC       0.1100
     27 C6         33.3172    7.6370   41.0182 C.ar        1 XNC       0.0976
     28 O36        33.9068    8.5856   40.2493 O.3         1 XNC      -0.3423
     29 C1         31.9240    7.7170   41.2106 C.ar        1 XNC      -0.0580
     30 C18        34.1560    3.3830   40.7946 C.ar        1 XNC       0.0130
     31 C23        32.8286    2.8845   40.8588 C.ar        1 XNC       0.1283
     32 F34        32.2037    2.7544   41.9955 F           1 XNC      -0.1917
     33 C22        32.1328    2.5247   39.6893 C.ar        1 XNC      -0.0061
     34 C21        32.7303    2.6641   38.4206 C.ar        1 XNC       0.0849
     35 C20        34.0435    3.1673   38.3397 C.ar        1 XNC      -0.0435
     36 C19        34.7504    3.5058   39.5085 C.ar        1 XNC      -0.0671
     37 O24        32.0032    2.3862   37.2865 O.3         1 XNC      -0.3110
     38 C25        32.5736    1.3584   36.4498 C.3         1 XNC       0.1027
     39 C26        31.7264    1.0582   35.2664 C.ar        1 XNC      -0.0131
     40 C31        30.3356    1.3322   35.2425 C.ar        1 XNC      -0.0578
     41 C30        29.5665    1.0509   34.0954 C.ar        1 XNC      -0.0685
     42 C29        30.1704    0.4854   32.9599 C.ar        1 XNC      -0.0687
     43 C28        31.5422    0.1836   32.9778 C.ar        1 XNC      -0.0685
     44 C27        32.3106    0.4507   34.1276 C.ar        1 XNC      -0.0578
     45 H1         35.2899    6.8333   44.9401 H           1 XNC       0.0705
     46 H2         34.3916    8.4295   46.5298 H           1 XNC       0.0729
     47 H3         32.3143    7.9522   47.6917 H           1 XNC       0.0684
     48 H4         30.8279    4.7656   47.9508 H           1 XNC       0.0421
     49 H5         29.9824    5.5676   46.6100 H           1 XNC       0.0421
     50 H6         30.3823    6.4764   48.0782 H           1 XNC       0.0421
     51 H7         31.5136    5.0380   43.1734 H           1 XNC       0.0382
     52 H8         30.2551    6.8148   42.1384 H           1 XNC       0.0451
     53 H9         34.9972    2.7744   42.5568 H           1 XNC       0.0812
     54 H10        39.4076    4.0048   40.9028 H           1 XNC       0.0503
     55 H11        39.8593    3.7383   42.5917 H           1 XNC       0.0503
     56 H12        38.6085    7.0783   43.8924 H           1 XNC       0.0237
     57 H13        39.5446    5.6388   44.3193 H           1 XNC       0.0237
     58 H14        37.7981    5.5278   44.0978 H           1 XNC       0.0237
     59 H15        40.4457    6.2596   40.7019 H           1 XNC       0.0237
     60 H16        41.1049    6.0451   42.3288 H           1 XNC       0.0237
     61 H17        40.1785    7.4990   41.9335 H           1 XNC       0.0237
     62 H18        37.9422    6.0166   40.2807 H           1 XNC       0.0444
     63 H19        37.7154    7.3167   41.4345 H           1 XNC       0.0444
     64 H20        35.7158    7.3269   40.8300 H           1 XNC       0.2009
     65 H21        34.4069    9.1365   40.8961 H           1 XNC       0.2432
     66 H22        31.3830    8.4674   40.7725 H           1 XNC       0.0389
     67 H23        31.1738    2.1696   39.7564 H           1 XNC       0.0510
     68 H24        34.4836    3.2915   37.4303 H           1 XNC       0.0491
     69 H25        35.7039    3.8563   39.3961 H           1 XNC       0.0520
     70 H26        32.7108    0.4329   37.0158 H           1 XNC       0.0776
     71 H27        33.5531    1.7002   36.1041 H           1 XNC       0.0776
     72 H28        29.8681    1.7358   36.0599 H           1 XNC       0.0557
     73 H29        28.5654    1.2618   34.0879 H           1 XNC       0.0599
     74 H30        29.6186    0.2996   32.1222 H           1 XNC       0.0559
     75 H31        31.9890   -0.2139   32.1490 H           1 XNC       0.0599
     76 H32        33.3063    0.2130   34.1216 H           1 XNC       0.0557
@<TRIPOS>BOND
     1     1     2   2
     2     2     3   1
     3     2    10  am
     4     3     4  ar
     5     3     9  ar
     6     4     5  ar
     7     5     6  ar
     8     6     7  ar
     9     7     8   1
    10     7     9  ar
    11    10    11   1
    12    10    14   1
    13    11    12  ar
    14    11    26  ar
    15    12    13  ar
    16    13    29  ar
    17    14    15   1
    18    14    30   1
    19    15    16   1
    20    15    24   2
    21    16    17   2
    22    16    18   2
    23    16    19   1
    24    19    20   1
    25    20    21   1
    26    20    22   1
    27    20    23   1
    28    23    24   1
    29    24    25   1
    30    25    26   1
    31    26    27  ar
    32    27    28   1
    33    27    29  ar
    34    30    31  ar
    35    30    36  ar
    36    31    32   1
    37    31    33  ar
    38    33    34  ar
    39    34    35  ar
    40    34    37   1
    41    35    36  ar
    42    37    38   1
    43    38    39   1
    44    39    40  ar
    45    39    44  ar
    46    40    41  ar
    47    41    42  ar
    48    42    43  ar
    49    43    44  ar
    50     4    45   1
    51     5    46   1
    52     6    47   1
    53     8    48   1
    54     8    49   1
    55     8    50   1
    56    12    51   1
    57    13    52   1
    58    14    53   1
    59    19    54   1
    60    19    55   1
    61    21    56   1
    62    21    57   1
    63    21    58   1
    64    22    59   1
    65    22    60   1
    66    22    61   1
    67    23    62   1
    68    23    63   1
    69    25    64   1
    70    28    65   1
    71    29    66   1
    72    33    67   1
    73    35    68   1
    74    36    69   1
    75    38    70   1
    76    38    71   1
    77    40    72   1
    78    41    73   1
    79    42    74   1
    80    43    75   1
    81    44    76   1
@<TRIPOS>SUBSTRUCTURE
     1  XNC      2

