@<TRIPOS>MOLECULE
3gnw_ligand_079
    76    81
SMALL
GAST_HUCK
****
This file was generated by PARSER (from files_GN.cpp)

@<TRIPOS>ATOM
      1 O35        30.2759    4.2471   37.4463 O.2         1 XNC      -0.3687
      2 C16        30.1890    5.1935   38.2176 C.2         1 XNC       0.2510
      3 C17        31.1744    6.1968   38.0164 C.ar        1 XNC       0.1194
      4 C43        32.2188    6.0875   37.0588 C.ar        1 XNC      -0.0209
      5 C42        33.1701    7.1165   36.9172 C.ar        1 XNC      -0.0435
      6 C41        33.1012    8.2584   37.7315 C.ar        1 XNC      -0.0287
      7 C40        32.0583    8.3613   38.6703 C.ar        1 XNC       0.0301
      8 C44        31.9024    9.5082   39.5922 C.3         1 XNC      -0.0144
      9 N39        31.1669    7.3470   38.7464 N.ar        1 XNC      -0.2781
     10 N7         29.1621    5.1759   39.1118 N.am        1 XNC      -0.2078
     11 C4         28.9447    6.2069   39.9946 C.ar        1 XNC       0.0880
     12 C3         29.8339    6.4042   41.0807 C.ar        1 XNC      -0.0607
     13 C2         29.6862    7.5210   41.9169 C.ar        1 XNC      -0.0955
     14 C8         28.1031    4.1664   39.0901 C.3         1 XNC       0.1162
     15 C9         27.0147    4.5691   38.1800 C.2         1 XNC       0.0894
     16 S12        26.4637    3.3439   37.0843 S.o2        1 XNC      -0.0239
     17 O32        25.8165    2.1347   37.8752 O.2         1 XNC      -0.1768
     18 O33        27.6855    2.7831   36.2520 O.2         1 XNC      -0.1768
     19 C13        25.2779    4.0173   35.8964 C.3         1 XNC       0.0705
     20 C14        25.4641    5.5566   35.7385 C.3         1 XNC      -0.0050
     21 C37        26.7939    5.9166   34.9928 C.3         1 XNC      -0.0565
     22 C38        24.2716    6.1114   34.8969 C.3         1 XNC      -0.0565
     23 C15        25.4356    6.1994   37.1710 C.3         1 XNC       0.0036
     24 C10        26.5202    5.8381   38.0987 C.2         1 XNC       0.0422
     25 N11        26.8402    6.8565   38.9232 N.pl3       1 XNC      -0.2908
     26 C5         27.8272    7.0658   39.8314 C.ar        1 XNC       0.1100
     27 C6         27.7063    8.1944   40.6744 C.ar        1 XNC       0.0976
     28 O36        26.6822    9.0793   40.5383 O.3         1 XNC      -0.3423
     29 C1         28.6356    8.4226   41.7058 C.ar        1 XNC      -0.0580
     30 C18        27.6699    3.6612   40.4535 C.ar        1 XNC       0.0130
     31 C23        28.3255    2.5460   41.0431 C.ar        1 XNC       0.1283
     32 F34        29.3060    1.9149   40.4481 F           1 XNC      -0.1917
     33 C22        27.9440    2.0733   42.3091 C.ar        1 XNC      -0.0061
     34 C21        26.9590    2.7354   43.0561 C.ar        1 XNC       0.0849
     35 C20        26.3037    3.8485   42.4991 C.ar        1 XNC      -0.0435
     36 C19        26.6552    4.2995   41.2146 C.ar        1 XNC      -0.0671
     37 O24        26.6107    2.2625   44.2969 O.3         1 XNC      -0.3110
     38 C25        27.5898    2.4999   45.3258 C.3         1 XNC       0.1027
     39 C26        27.4477    1.4365   46.3541 C.ar        1 XNC      -0.0131
     40 C31        26.3370    1.4274   47.2272 C.ar        1 XNC      -0.0578
     41 C30        26.1859    0.4049   48.1813 C.ar        1 XNC      -0.0685
     42 C29        27.1394   -0.6281   48.2668 C.ar        1 XNC      -0.0687
     43 C28        28.2458   -0.6321   47.3994 C.ar        1 XNC      -0.0685
     44 C27        28.3975    0.3933   46.4482 C.ar        1 XNC      -0.0578
     45 H1         32.3046    5.2652   36.4574 H           1 XNC       0.0705
     46 H2         33.9150    7.0298   36.2228 H           1 XNC       0.0729
     47 H3         33.7991    8.9980   37.6354 H           1 XNC       0.0684
     48 H4         31.9641    9.1557   40.6196 H           1 XNC       0.0421
     49 H5         30.9319    9.9746   39.4309 H           1 XNC       0.0421
     50 H6         32.6818   10.2588   39.4369 H           1 XNC       0.0421
     51 H7         30.6156    5.7642   41.2245 H           1 XNC       0.0382
     52 H8         30.3579    7.6824   42.6738 H           1 XNC       0.0451
     53 H9         28.5341    3.2728   38.6380 H           1 XNC       0.0812
     54 H10        24.2790    3.7926   36.2755 H           1 XNC       0.0503
     55 H11        25.4009    3.5012   34.9423 H           1 XNC       0.0503
     56 H12        26.8883    6.9991   34.8817 H           1 XNC       0.0237
     57 H13        26.8117    5.4676   33.9976 H           1 XNC       0.0237
     58 H14        27.6710    5.5627   35.5344 H           1 XNC       0.0237
     59 H15        23.3164    5.9141   35.3895 H           1 XNC       0.0237
     60 H16        24.2464    5.6440   33.9087 H           1 XNC       0.0237
     61 H17        24.3600    7.1916   34.7593 H           1 XNC       0.0237
     62 H18        24.4937    5.9330   37.6594 H           1 XNC       0.0444
     63 H19        25.4153    7.2861   37.0294 H           1 XNC       0.0444
     64 H20        26.1988    7.5856   38.8894 H           1 XNC       0.2009
     65 H21        26.8514    9.5321   39.6856 H           1 XNC       0.2432
     66 H22        28.5363    9.2404   42.3148 H           1 XNC       0.0389
     67 H23        28.4051    1.2463   42.7001 H           1 XNC       0.0510
     68 H24        25.5722    4.3308   43.0287 H           1 XNC       0.0491
     69 H25        26.1574    5.1101   40.8459 H           1 XNC       0.0520
     70 H26        27.4277    3.4817   45.7730 H           1 XNC       0.0776
     71 H27        28.6186    2.4916   44.9408 H           1 XNC       0.0776
     72 H28        25.6303    2.1686   47.1753 H           1 XNC       0.0557
     73 H29        25.3823    0.4069   48.8143 H           1 XNC       0.0599
     74 H30        27.0309   -1.3718   48.9582 H           1 XNC       0.0559
     75 H31        28.9378   -1.3836   47.4572 H           1 XNC       0.0599
     76 H32        29.2034    0.3634   45.8179 H           1 XNC       0.0557
@<TRIPOS>BOND
     1     1     2   2
     2     2     3   1
     3     2    10  am
     4     3     4  ar
     5     3     9  ar
     6     4     5  ar
     7     5     6  ar
     8     6     7  ar
     9     7     8   1
    10     7     9  ar
    11    10    11   1
    12    10    14   1
    13    11    12  ar
    14    11    26  ar
    15    12    13  ar
    16    13    29  ar
    17    14    15   1
    18    14    30   1
    19    15    16   1
    20    15    24   2
    21    16    17   2
    22    16    18   2
    23    16    19   1
    24    19    20   1
    25    20    21   1
    26    20    22   1
    27    20    23   1
    28    23    24   1
    29    24    25   1
    30    25    26   1
    31    26    27  ar
    32    27    28   1
    33    27    29  ar
    34    30    31  ar
    35    30    36  ar
    36    31    32   1
    37    31    33  ar
    38    33    34  ar
    39    34    35  ar
    40    34    37   1
    41    35    36  ar
    42    37    38   1
    43    38    39   1
    44    39    40  ar
    45    39    44  ar
    46    40    41  ar
    47    41    42  ar
    48    42    43  ar
    49    43    44  ar
    50     4    45   1
    51     5    46   1
    52     6    47   1
    53     8    48   1
    54     8    49   1
    55     8    50   1
    56    12    51   1
    57    13    52   1
    58    14    53   1
    59    19    54   1
    60    19    55   1
    61    21    56   1
    62    21    57   1
    63    21    58   1
    64    22    59   1
    65    22    60   1
    66    22    61   1
    67    23    62   1
    68    23    63   1
    69    25    64   1
    70    28    65   1
    71    29    66   1
    72    33    67   1
    73    35    68   1
    74    36    69   1
    75    38    70   1
    76    38    71   1
    77    40    72   1
    78    41    73   1
    79    42    74   1
    80    43    75   1
    81    44    76   1
@<TRIPOS>SUBSTRUCTURE
     1  XNC      2

