@<TRIPOS>MOLECULE
3gnw_ligand_045
    76    81
SMALL
GAST_HUCK
****
This file was generated by PARSER (from files_GN.cpp)

@<TRIPOS>ATOM
      1 O35        32.2517    0.3563   38.0850 O.2         1 XNC      -0.3687
      2 C16        32.0869    1.5635   38.2474 C.2         1 XNC       0.2510
      3 C17        32.9867    2.1463   39.1253 C.ar        1 XNC       0.1194
      4 C43        33.1398    1.7126   40.4597 C.ar        1 XNC      -0.0209
      5 C42        34.0314    2.3977   41.3050 C.ar        1 XNC      -0.0435
      6 C41        34.8328    3.4336   40.7932 C.ar        1 XNC      -0.0287
      7 C40        34.7179    3.7820   39.4314 C.ar        1 XNC       0.0301
      8 C44        35.5876    4.8164   38.8367 C.3         1 XNC      -0.0144
      9 N39        33.7896    3.1433   38.6677 N.ar        1 XNC      -0.2781
     10 N7         31.1119    2.2290   37.5805 N.am        1 XNC      -0.2078
     11 C4         30.4864    1.6138   36.5093 C.ar        1 XNC       0.0880
     12 C3         31.2632    1.2168   35.3911 C.ar        1 XNC      -0.0607
     13 C2         30.6599    0.6474   34.2583 C.ar        1 XNC      -0.0955
     14 C8         30.5349    3.4909   38.0600 C.3         1 XNC       0.1162
     15 C9         29.4870    3.1244   39.0392 C.2         1 XNC       0.0894
     16 S12        29.5938    3.8268   40.6223 S.o2        1 XNC      -0.0239
     17 O32        29.6541    5.4126   40.5614 O.2         1 XNC      -0.1768
     18 O33        30.8752    3.3471   41.4236 O.2         1 XNC      -0.1768
     19 C13        28.1811    3.3372   41.6373 C.3         1 XNC       0.0705
     20 C14        27.5195    2.0268   41.1068 C.3         1 XNC      -0.0050
     21 C37        28.4081    0.7668   41.3793 C.3         1 XNC      -0.0565
     22 C38        26.1667    1.8294   41.8624 C.3         1 XNC      -0.0565
     23 C15        27.2485    2.1978   39.5727 C.3         1 XNC       0.0036
     24 C10        28.4241    2.3494   38.6998 C.2         1 XNC       0.0422
     25 N11        28.2394    1.7930   37.4851 N.pl3       1 XNC      -0.2908
     26 C5         29.0775    1.4454   36.4727 C.ar        1 XNC       0.1100
     27 C6         28.4830    0.8687   35.3236 C.ar        1 XNC       0.0976
     28 O36        27.1381    0.6953   35.2385 O.3         1 XNC      -0.3423
     29 C1         29.2683    0.4706   34.2267 C.ar        1 XNC      -0.0580
     30 C18        30.1188    4.4858   36.9835 C.ar        1 XNC       0.0130
     31 C23        28.9249    5.2650   37.0078 C.ar        1 XNC       0.1283
     32 F34        28.0808    5.2532   38.0048 F           1 XNC      -0.1917
     33 C22        28.5989    6.1436   35.9572 C.ar        1 XNC      -0.0061
     34 C21        29.4852    6.3362   34.8806 C.ar        1 XNC       0.0849
     35 C20        30.6774    5.5919   34.8442 C.ar        1 XNC      -0.0435
     36 C19        30.9970    4.7017   35.8881 C.ar        1 XNC      -0.0671
     37 O24        29.1714    7.1971   33.8577 O.3         1 XNC      -0.3110
     38 C25        29.1983    8.5987   34.2143 C.3         1 XNC       0.1027
     39 C26        28.6973    9.4293   33.0921 C.ar        1 XNC      -0.0131
     40 C31        27.4063    9.1909   32.5623 C.ar        1 XNC      -0.0578
     41 C30        26.8789   10.0187   31.5546 C.ar        1 XNC      -0.0685
     42 C29        27.6304   11.1028   31.0690 C.ar        1 XNC      -0.0687
     43 C28        28.9150   11.3532   31.5850 C.ar        1 XNC      -0.0685
     44 C27        29.4485   10.5172   32.5836 C.ar        1 XNC      -0.0578
     45 H1         32.5763    0.9455   40.8363 H           1 XNC       0.0705
     46 H2         34.1133    2.1249   42.2891 H           1 XNC       0.0729
     47 H3         35.5051    3.9066   41.4038 H           1 XNC       0.0684
     48 H4         35.4036    4.9197   37.7659 H           1 XNC       0.0421
     49 H5         36.6317    4.5355   38.9807 H           1 XNC       0.0421
     50 H6         35.4107    5.7820   39.3137 H           1 XNC       0.0421
     51 H7         32.2767    1.3563   35.3888 H           1 XNC       0.0382
     52 H8         31.2306    0.3685   33.4556 H           1 XNC       0.0451
     53 H9         31.3069    4.0544   38.5860 H           1 XNC       0.0812
     54 H10        27.4616    4.1619   41.6212 H           1 XNC       0.0503
     55 H11        28.5181    3.2121   42.6680 H           1 XNC       0.0503
     56 H12        27.9342   -0.1283   40.9704 H           1 XNC       0.0237
     57 H13        28.5459    0.6150   42.4513 H           1 XNC       0.0237
     58 H14        29.3951    0.8591   40.9240 H           1 XNC       0.0237
     59 H15        25.4793    2.6551   41.6617 H           1 XNC       0.0237
     60 H16        26.3305    1.7802   42.9413 H           1 XNC       0.0237
     61 H17        25.6796    0.9023   41.5531 H           1 XNC       0.0237
     62 H18        26.6177    3.0795   39.4171 H           1 XNC       0.0444
     63 H19        26.6522    1.3363   39.2507 H           1 XNC       0.0444
     64 H20        27.3194    1.5455   37.3141 H           1 XNC       0.2009
     65 H21        26.8424    1.3633   34.5819 H           1 XNC       0.2432
     66 H22        28.8301    0.0603   33.3987 H           1 XNC       0.0389
     67 H23        27.7160    6.6648   35.9823 H           1 XNC       0.0510
     68 H24        31.3136    5.6955   34.0496 H           1 XNC       0.0491
     69 H25        31.8841    4.1998   35.8346 H           1 XNC       0.0520
     70 H26        30.2160    8.8840   34.4851 H           1 XNC       0.0776
     71 H27        28.5565    8.8032   35.0764 H           1 XNC       0.0776
     72 H28        26.8354    8.4207   32.9199 H           1 XNC       0.0557
     73 H29        25.9395    9.8428   31.1893 H           1 XNC       0.0599
     74 H30        27.2383   11.7144   30.3515 H           1 XNC       0.0559
     75 H31        29.4528   12.1564   31.2488 H           1 XNC       0.0599
     76 H32        30.3776   10.7284   32.9566 H           1 XNC       0.0557
@<TRIPOS>BOND
     1     1     2   2
     2     2     3   1
     3     2    10  am
     4     3     4  ar
     5     3     9  ar
     6     4     5  ar
     7     5     6  ar
     8     6     7  ar
     9     7     8   1
    10     7     9  ar
    11    10    11   1
    12    10    14   1
    13    11    12  ar
    14    11    26  ar
    15    12    13  ar
    16    13    29  ar
    17    14    15   1
    18    14    30   1
    19    15    16   1
    20    15    24   2
    21    16    17   2
    22    16    18   2
    23    16    19   1
    24    19    20   1
    25    20    21   1
    26    20    22   1
    27    20    23   1
    28    23    24   1
    29    24    25   1
    30    25    26   1
    31    26    27  ar
    32    27    28   1
    33    27    29  ar
    34    30    31  ar
    35    30    36  ar
    36    31    32   1
    37    31    33  ar
    38    33    34  ar
    39    34    35  ar
    40    34    37   1
    41    35    36  ar
    42    37    38   1
    43    38    39   1
    44    39    40  ar
    45    39    44  ar
    46    40    41  ar
    47    41    42  ar
    48    42    43  ar
    49    43    44  ar
    50     4    45   1
    51     5    46   1
    52     6    47   1
    53     8    48   1
    54     8    49   1
    55     8    50   1
    56    12    51   1
    57    13    52   1
    58    14    53   1
    59    19    54   1
    60    19    55   1
    61    21    56   1
    62    21    57   1
    63    21    58   1
    64    22    59   1
    65    22    60   1
    66    22    61   1
    67    23    62   1
    68    23    63   1
    69    25    64   1
    70    28    65   1
    71    29    66   1
    72    33    67   1
    73    35    68   1
    74    36    69   1
    75    38    70   1
    76    38    71   1
    77    40    72   1
    78    41    73   1
    79    42    74   1
    80    43    75   1
    81    44    76   1
@<TRIPOS>SUBSTRUCTURE
     1  XNC      2

