@<TRIPOS>MOLECULE
3gnw_ligand_025
    76    81
SMALL
GAST_HUCK
****
This file was generated by PARSER (from files_GN.cpp)

@<TRIPOS>ATOM
      1 O35        26.6621    4.1269   37.7985 O.2         1 XNC      -0.3687
      2 C16        26.8229    2.9121   37.8566 C.2         1 XNC       0.2510
      3 C17        26.6058    2.2659   36.6570 C.ar        1 XNC       0.1194
      4 C43        25.3234    1.8824   36.2178 C.ar        1 XNC      -0.0209
      5 C42        25.1921    1.2145   34.9855 C.ar        1 XNC      -0.0435
      6 C41        26.3294    0.9729   34.1913 C.ar        1 XNC      -0.0287
      7 C40        27.5967    1.3876   34.6559 C.ar        1 XNC       0.0301
      8 C44        28.8205    1.2044   33.8528 C.3         1 XNC      -0.0144
      9 N39        27.6826    2.0037   35.8628 N.ar        1 XNC      -0.2781
     10 N7         27.3423    2.3075   38.9485 N.am        1 XNC      -0.2078
     11 C4         27.3091    0.9272   39.0866 C.ar        1 XNC       0.0880
     12 C3         26.0608    0.2639   38.9967 C.ar        1 XNC      -0.0607
     13 C2         25.9708   -1.1290   39.1069 C.ar        1 XNC      -0.0955
     14 C8         27.9644    3.0612   40.0323 C.3         1 XNC       0.1162
     15 C9         29.4319    3.0719   39.8447 C.2         1 XNC       0.0894
     16 S12        30.2098    4.5809   40.1736 S.o2        1 XNC      -0.0239
     17 O32        29.8491    5.0202   41.6620 O.2         1 XNC      -0.1768
     18 O33        29.6773    5.7187   39.1953 O.2         1 XNC      -0.1768
     19 C13        31.9992    4.4559   40.0112 C.3         1 XNC       0.0705
     20 C14        32.4870    2.9894   40.2059 C.3         1 XNC      -0.0050
     21 C37        33.9957    2.9155   39.7951 C.3         1 XNC      -0.0565
     22 C38        32.3781    2.5375   41.6975 C.3         1 XNC      -0.0565
     23 C15        31.6311    2.0691   39.2661 C.3         1 XNC       0.0036
     24 C10        30.1834    1.9753   39.5473 C.2         1 XNC       0.0422
     25 N11        29.7186    0.7128   39.5009 N.pl3       1 XNC      -0.2908
     26 C5         28.4825    0.1704   39.3533 C.ar        1 XNC       0.1100
     27 C6         28.3792   -1.2437   39.4404 C.ar        1 XNC       0.0976
     28 O36        29.4547   -2.0550   39.6280 O.3         1 XNC      -0.3423
     29 C1         27.1320   -1.8828   39.3140 C.ar        1 XNC      -0.0580
     30 C18        27.4255    2.7047   41.3946 C.ar        1 XNC       0.0130
     31 C23        26.2840    3.3836   41.9191 C.ar        1 XNC       0.1283
     32 F34        25.6738    4.3087   41.2249 F           1 XNC      -0.1917
     33 C22        25.7772    3.0913   43.1972 C.ar        1 XNC      -0.0061
     34 C21        26.3338    2.0482   43.9636 C.ar        1 XNC       0.0849
     35 C20        27.4928    1.3961   43.4789 C.ar        1 XNC      -0.0435
     36 C19        28.0100    1.7018   42.2164 C.ar        1 XNC      -0.0671
     37 O24        25.7387    1.6954   45.1437 O.3         1 XNC      -0.3110
     38 C25        25.7805    0.3013   45.5228 C.3         1 XNC       0.1027
     39 C26        24.8609   -0.6066   44.7801 C.ar        1 XNC      -0.0131
     40 C31        24.8282   -0.6200   43.3582 C.ar        1 XNC      -0.0578
     41 C30        24.0625   -1.5579   42.6528 C.ar        1 XNC      -0.0685
     42 C29        23.3285   -2.5367   43.3530 C.ar        1 XNC      -0.0687
     43 C28        23.3543   -2.5499   44.7638 C.ar        1 XNC      -0.0685
     44 C27        24.0988   -1.5947   45.4694 C.ar        1 XNC      -0.0578
     45 H1         24.4959    2.0560   36.7955 H           1 XNC       0.0705
     46 H2         24.2713    0.9083   34.6634 H           1 XNC       0.0729
     47 H3         26.2300    0.4969   33.2926 H           1 XNC       0.0684
     48 H4         29.7032    1.5494   34.3991 H           1 XNC       0.0421
     49 H5         28.7395    1.7811   32.9291 H           1 XNC       0.0421
     50 H6         28.9581    0.1500   33.6076 H           1 XNC       0.0421
     51 H7         25.2052    0.8000   38.8421 H           1 XNC       0.0382
     52 H8         25.0635   -1.5907   39.0248 H           1 XNC       0.0451
     53 H9         27.6631    4.1096   39.9457 H           1 XNC       0.0812
     54 H10        32.4735    5.1327   40.7258 H           1 XNC       0.0503
     55 H11        32.2494    4.8018   39.0050 H           1 XNC       0.0503
     56 H12        34.3904    1.9067   39.9314 H           1 XNC       0.0237
     57 H13        34.5955    3.5974   40.4040 H           1 XNC       0.0237
     58 H14        34.1331    3.1913   38.7469 H           1 XNC       0.0237
     59 H15        31.3495    2.5747   42.0558 H           1 XNC       0.0237
     60 H16        32.9757    3.1855   42.3427 H           1 XNC       0.0237
     61 H17        32.7361    1.5125   41.8126 H           1 XNC       0.0237
     62 H18        32.0921    1.0744   39.2662 H           1 XNC       0.0444
     63 H19        31.7230    2.4355   38.2381 H           1 XNC       0.0444
     64 H20        30.4197    0.0508   39.6020 H           1 XNC       0.2009
     65 H21        29.9499   -1.6936   40.3867 H           1 XNC       0.2432
     66 H22        27.0606   -2.9013   39.3839 H           1 XNC       0.0389
     67 H23        24.9636    3.6039   43.5602 H           1 XNC       0.0510
     68 H24        27.9168    0.6577   44.0506 H           1 XNC       0.0491
     69 H25        28.8236    1.1706   41.8937 H           1 XNC       0.0520
     70 H26        25.5334    0.2813   46.5930 H           1 XNC       0.0776
     71 H27        26.8019   -0.1004   45.4187 H           1 XNC       0.0776
     72 H28        25.3803    0.0534   42.8168 H           1 XNC       0.0557
     73 H29        24.0528   -1.5399   41.6272 H           1 XNC       0.0599
     74 H30        22.7969   -3.2421   42.8464 H           1 XNC       0.0559
     75 H31        22.8160   -3.2621   45.2707 H           1 XNC       0.0599
     76 H32        24.0965   -1.6194   46.4957 H           1 XNC       0.0557
@<TRIPOS>BOND
     1     1     2   2
     2     2     3   1
     3     2    10  am
     4     3     4  ar
     5     3     9  ar
     6     4     5  ar
     7     5     6  ar
     8     6     7  ar
     9     7     8   1
    10     7     9  ar
    11    10    11   1
    12    10    14   1
    13    11    12  ar
    14    11    26  ar
    15    12    13  ar
    16    13    29  ar
    17    14    15   1
    18    14    30   1
    19    15    16   1
    20    15    24   2
    21    16    17   2
    22    16    18   2
    23    16    19   1
    24    19    20   1
    25    20    21   1
    26    20    22   1
    27    20    23   1
    28    23    24   1
    29    24    25   1
    30    25    26   1
    31    26    27  ar
    32    27    28   1
    33    27    29  ar
    34    30    31  ar
    35    30    36  ar
    36    31    32   1
    37    31    33  ar
    38    33    34  ar
    39    34    35  ar
    40    34    37   1
    41    35    36  ar
    42    37    38   1
    43    38    39   1
    44    39    40  ar
    45    39    44  ar
    46    40    41  ar
    47    41    42  ar
    48    42    43  ar
    49    43    44  ar
    50     4    45   1
    51     5    46   1
    52     6    47   1
    53     8    48   1
    54     8    49   1
    55     8    50   1
    56    12    51   1
    57    13    52   1
    58    14    53   1
    59    19    54   1
    60    19    55   1
    61    21    56   1
    62    21    57   1
    63    21    58   1
    64    22    59   1
    65    22    60   1
    66    22    61   1
    67    23    62   1
    68    23    63   1
    69    25    64   1
    70    28    65   1
    71    29    66   1
    72    33    67   1
    73    35    68   1
    74    36    69   1
    75    38    70   1
    76    38    71   1
    77    40    72   1
    78    41    73   1
    79    42    74   1
    80    43    75   1
    81    44    76   1
@<TRIPOS>SUBSTRUCTURE
     1  XNC      2

