@<TRIPOS>MOLECULE
3gnw_ligand_070
    76    81
SMALL
GAST_HUCK
****
This file was generated by PARSER (from files_GN.cpp)

@<TRIPOS>ATOM
      1 O35        38.6506    3.3814   38.6854 O.2         1 XNC      -0.3687
      2 C16        38.0150    2.3477   38.8817 C.2         1 XNC       0.2510
      3 C17        37.3044    1.9247   37.7444 C.ar        1 XNC       0.1194
      4 C43        37.7533    2.1732   36.4163 C.ar        1 XNC      -0.0209
      5 C42        36.9919    1.7472   35.3105 C.ar        1 XNC      -0.0435
      6 C41        35.7625    1.0924   35.5160 C.ar        1 XNC      -0.0287
      7 C40        35.3209    0.8673   36.8335 C.ar        1 XNC       0.0301
      8 C44        34.0404    0.2003   37.1211 C.3         1 XNC      -0.0144
      9 N39        36.1077    1.2848   37.8598 N.ar        1 XNC      -0.2781
     10 N7         38.1042    1.7786   40.1146 N.am        1 XNC      -0.2078
     11 C4         37.4423    0.6104   40.4413 C.ar        1 XNC       0.0880
     12 C3         36.0436    0.6254   40.6477 C.ar        1 XNC      -0.0607
     13 C2         35.3488   -0.5455   40.9968 C.ar        1 XNC      -0.0955
     14 C8         39.1248    2.2110   41.0911 C.3         1 XNC       0.1162
     15 C9         40.3889    1.5383   40.7078 C.2         1 XNC       0.0894
     16 S12        41.7393    2.5630   40.3839 S.o2        1 XNC      -0.0239
     17 O32        42.0232    3.6250   41.5346 O.2         1 XNC      -0.1768
     18 O33        41.4499    3.3839   39.0506 O.2         1 XNC      -0.1768
     19 C13        43.2268    1.5928   40.0779 C.3         1 XNC       0.0705
     20 C14        42.8728    0.2185   39.4323 C.3         1 XNC      -0.0050
     21 C37        42.3506    0.3801   37.9652 C.3         1 XNC      -0.0565
     22 C38        44.1710   -0.6548   39.3885 C.3         1 XNC      -0.0565
     23 C15        41.8048   -0.4843   40.3393 C.3         1 XNC       0.0036
     24 C10        40.5077    0.1935   40.5476 C.2         1 XNC       0.0422
     25 N11        39.5090   -0.6921   40.6880 N.pl3       1 XNC      -0.2908
     26 C5         38.1601   -0.5876   40.7045 C.ar        1 XNC       0.1100
     27 C6         37.4531   -1.7715   41.0373 C.ar        1 XNC       0.0976
     28 O36        38.1079   -2.9517   41.2189 O.3         1 XNC      -0.3423
     29 C1         36.0539   -1.7470   41.1830 C.ar        1 XNC      -0.0580
     30 C18        38.7450    2.1694   42.5604 C.ar        1 XNC       0.0130
     31 C23        39.6590    1.9655   43.6353 C.ar        1 XNC       0.1283
     32 F34        40.9368    1.7797   43.4504 F           1 XNC      -0.1917
     33 C22        39.2310    1.9923   44.9774 C.ar        1 XNC      -0.0061
     34 C21        37.8802    2.2074   45.3081 C.ar        1 XNC       0.0849
     35 C20        36.9684    2.4536   44.2592 C.ar        1 XNC      -0.0435
     36 C19        37.4066    2.4799   42.9213 C.ar        1 XNC      -0.0671
     37 O24        37.5538    2.1655   46.6485 O.3         1 XNC      -0.3110
     38 C25        36.5736    3.0837   47.1823 C.3         1 XNC       0.1027
     39 C26        35.1865    2.5449   47.2298 C.ar        1 XNC      -0.0131
     40 C31        34.9307    1.1548   47.3170 C.ar        1 XNC      -0.0578
     41 C30        33.6143    0.6709   47.4398 C.ar        1 XNC      -0.0685
     42 C29        32.5333    1.5691   47.4819 C.ar        1 XNC      -0.0687
     43 C28        32.7698    2.9524   47.3947 C.ar        1 XNC      -0.0685
     44 C27        34.0869    3.4359   47.2740 C.ar        1 XNC      -0.0578
     45 H1         38.6454    2.6442   36.2416 H           1 XNC       0.0705
     46 H2         37.3332    1.9050   34.3578 H           1 XNC       0.0729
     47 H3         35.2083    0.7836   34.7105 H           1 XNC       0.0684
     48 H4         33.8920    0.0980   38.1955 H           1 XNC       0.0421
     49 H5         34.0355   -0.7913   36.6713 H           1 XNC       0.0421
     50 H6         33.2169    0.7839   36.7101 H           1 XNC       0.0421
     51 H7         35.5169    1.4912   40.5258 H           1 XNC       0.0382
     52 H8         34.3364   -0.5224   41.1152 H           1 XNC       0.0451
     53 H9         39.2587    3.2916   40.9709 H           1 XNC       0.0812
     54 H10        43.7213    1.4404   41.0427 H           1 XNC       0.0503
     55 H11        43.8993    2.1708   39.4395 H           1 XNC       0.0503
     56 H12        42.1638   -0.5952   37.5124 H           1 XNC       0.0237
     57 H13        43.0865    0.9059   37.3532 H           1 XNC       0.0237
     58 H14        41.4174    0.9420   37.9285 H           1 XNC       0.0237
     59 H15        44.5677   -0.8190   40.3925 H           1 XNC       0.0237
     60 H16        44.9460   -0.1657   38.7941 H           1 XNC       0.0237
     61 H17        43.9684   -1.6303   38.9434 H           1 XNC       0.0237
     62 H18        42.2309   -0.6392   41.3355 H           1 XNC       0.0444
     63 H19        41.6452   -1.4845   39.9161 H           1 XNC       0.0444
     64 H20        39.8188   -1.6077   40.7911 H           1 XNC       0.2009
     65 H21        37.8886   -3.2683   42.1220 H           1 XNC       0.2432
     66 H22        35.5511   -2.5991   41.4370 H           1 XNC       0.0389
     67 H23        39.9127    1.8641   45.7288 H           1 XNC       0.0510
     68 H24        35.9810    2.6339   44.4611 H           1 XNC       0.0491
     69 H25        36.7150    2.7039   42.2005 H           1 XNC       0.0520
     70 H26        36.6064    4.0294   46.6330 H           1 XNC       0.0776
     71 H27        36.8637    3.3120   48.2109 H           1 XNC       0.0776
     72 H28        35.6988    0.4814   47.3092 H           1 XNC       0.0557
     73 H29        33.4445   -0.3345   47.5201 H           1 XNC       0.0599
     74 H30        31.5783    1.2172   47.5841 H           1 XNC       0.0559
     75 H31        31.9846    3.6063   47.4315 H           1 XNC       0.0599
     76 H32        34.2371    4.4465   47.2276 H           1 XNC       0.0557
@<TRIPOS>BOND
     1     1     2   2
     2     2     3   1
     3     2    10  am
     4     3     4  ar
     5     3     9  ar
     6     4     5  ar
     7     5     6  ar
     8     6     7  ar
     9     7     8   1
    10     7     9  ar
    11    10    11   1
    12    10    14   1
    13    11    12  ar
    14    11    26  ar
    15    12    13  ar
    16    13    29  ar
    17    14    15   1
    18    14    30   1
    19    15    16   1
    20    15    24   2
    21    16    17   2
    22    16    18   2
    23    16    19   1
    24    19    20   1
    25    20    21   1
    26    20    22   1
    27    20    23   1
    28    23    24   1
    29    24    25   1
    30    25    26   1
    31    26    27  ar
    32    27    28   1
    33    27    29  ar
    34    30    31  ar
    35    30    36  ar
    36    31    32   1
    37    31    33  ar
    38    33    34  ar
    39    34    35  ar
    40    34    37   1
    41    35    36  ar
    42    37    38   1
    43    38    39   1
    44    39    40  ar
    45    39    44  ar
    46    40    41  ar
    47    41    42  ar
    48    42    43  ar
    49    43    44  ar
    50     4    45   1
    51     5    46   1
    52     6    47   1
    53     8    48   1
    54     8    49   1
    55     8    50   1
    56    12    51   1
    57    13    52   1
    58    14    53   1
    59    19    54   1
    60    19    55   1
    61    21    56   1
    62    21    57   1
    63    21    58   1
    64    22    59   1
    65    22    60   1
    66    22    61   1
    67    23    62   1
    68    23    63   1
    69    25    64   1
    70    28    65   1
    71    29    66   1
    72    33    67   1
    73    35    68   1
    74    36    69   1
    75    38    70   1
    76    38    71   1
    77    40    72   1
    78    41    73   1
    79    42    74   1
    80    43    75   1
    81    44    76   1
@<TRIPOS>SUBSTRUCTURE
     1  XNC      2

