@<TRIPOS>MOLECULE
3gnw_ligand_090
    76    81
SMALL
GAST_HUCK
****
This file was generated by PARSER (from files_GN.cpp)

@<TRIPOS>ATOM
      1 O35        29.5958    3.5036   38.5711 O.2         1 XNC      -0.3687
      2 C16        28.6612    4.2987   38.5639 C.2         1 XNC       0.2510
      3 C17        27.9704    4.3582   39.7736 C.ar        1 XNC       0.1194
      4 C43        27.4778    5.5618   40.3175 C.ar        1 XNC      -0.0209
      5 C42        26.7017    5.5364   41.4864 C.ar        1 XNC      -0.0435
      6 C41        26.4995    4.3248   42.1702 C.ar        1 XNC      -0.0287
      7 C40        27.1062    3.1520   41.6748 C.ar        1 XNC       0.0301
      8 C44        27.0283    1.8858   42.4243 C.3         1 XNC      -0.0144
      9 N39        27.7955    3.2211   40.5049 N.ar        1 XNC      -0.2781
     10 N7         28.3814    4.9699   37.4152 N.am        1 XNC      -0.2078
     11 C4         29.2964    4.9926   36.3640 C.ar        1 XNC       0.0880
     12 C3         30.6049    5.4686   36.6229 C.ar        1 XNC      -0.0607
     13 C2         31.5367    5.6257   35.5880 C.ar        1 XNC      -0.0955
     14 C8         27.0686    5.5772   37.1249 C.3         1 XNC       0.1162
     15 C9         26.2436    4.5276   36.4947 C.2         1 XNC       0.0894
     16 S12        24.8228    4.0410   37.3428 S.o2        1 XNC      -0.0239
     17 O32        23.9389    5.2848   37.7993 O.2         1 XNC      -0.1768
     18 O33        25.2583    3.2631   38.6593 O.2         1 XNC      -0.1768
     19 C13        23.8615    2.8850   36.3470 C.3         1 XNC       0.0705
     20 C14        24.7726    2.0663   35.3855 C.3         1 XNC      -0.0050
     21 C37        25.6566    1.0266   36.1507 C.3         1 XNC      -0.0565
     22 C38        23.8589    1.2833   34.3901 C.3         1 XNC      -0.0565
     23 C15        25.6529    3.0844   34.5751 C.3         1 XNC       0.0036
     24 C10        26.5854    3.9377   35.3255 C.2         1 XNC       0.0422
     25 N11        27.7130    4.1959   34.6484 N.pl3       1 XNC      -0.2908
     26 C5         28.9253    4.6739   35.0249 C.ar        1 XNC       0.1100
     27 C6         29.8797    4.8346   33.9897 C.ar        1 XNC       0.0976
     28 O36        29.5985    4.5649   32.6867 O.3         1 XNC      -0.3423
     29 C1         31.1694    5.3129   34.2723 C.ar        1 XNC      -0.0580
     30 C18        27.1333    6.9400   36.4573 C.ar        1 XNC       0.0130
     31 C23        26.4066    7.3371   35.2984 C.ar        1 XNC       0.1283
     32 F34        25.5558    6.5498   34.6955 F           1 XNC      -0.1917
     33 C22        26.5749    8.6226   34.7473 C.ar        1 XNC      -0.0061
     34 C21        27.4824    9.5422   35.3059 C.ar        1 XNC       0.0849
     35 C20        28.1363    9.1912   36.4988 C.ar        1 XNC      -0.0435
     36 C19        27.9548    7.9200   37.0696 C.ar        1 XNC      -0.0671
     37 O24        27.6871   10.7976   34.7882 O.3         1 XNC      -0.3110
     38 C25        28.2589   10.8567   33.4630 C.3         1 XNC       0.1027
     39 C26        27.2236   10.7062   32.4067 C.ar        1 XNC      -0.0131
     40 C31        26.2307   11.7013   32.2404 C.ar        1 XNC      -0.0578
     41 C30        25.1930   11.5321   31.3041 C.ar        1 XNC      -0.0685
     42 C29        25.1311   10.3611   30.5288 C.ar        1 XNC      -0.0687
     43 C28        26.1217    9.3721   30.6719 C.ar        1 XNC      -0.0685
     44 C27        27.1694    9.5490   31.5953 C.ar        1 XNC      -0.0578
     45 H1         27.6474    6.4641   39.8683 H           1 XNC       0.0705
     46 H2         26.2935    6.4090   41.8469 H           1 XNC       0.0729
     47 H3         25.9473    4.3149   43.0338 H           1 XNC       0.0684
     48 H4         27.5727    1.0911   41.9082 H           1 XNC       0.0421
     49 H5         25.9877    1.5791   42.5364 H           1 XNC       0.0421
     50 H6         27.4712    2.0194   43.4135 H           1 XNC       0.0421
     51 H7         30.8778    5.7425   37.5698 H           1 XNC       0.0382
     52 H8         32.4741    5.9836   35.7855 H           1 XNC       0.0451
     53 H9         26.5800    5.8498   38.0522 H           1 XNC       0.0812
     54 H10        23.1562    3.4750   35.7621 H           1 XNC       0.0503
     55 H11        23.2882    2.2296   37.0019 H           1 XNC       0.0503
     56 H12        26.2740    0.4530   35.4540 H           1 XNC       0.0237
     57 H13        25.0300    0.3252   36.7032 H           1 XNC       0.0237
     58 H14        26.3259    1.5153   36.8597 H           1 XNC       0.0237
     59 H15        23.2481    1.9670   33.8034 H           1 XNC       0.0237
     60 H16        23.1895    0.6058   34.9222 H           1 XNC       0.0237
     61 H17        24.4678    0.7017   33.6987 H           1 XNC       0.0237
     62 H18        24.9835    3.7457   34.0014 H           1 XNC       0.0444
     63 H19        26.2041    2.5046   33.8190 H           1 XNC       0.0444
     64 H20        27.6756    3.9270   33.7198 H           1 XNC       0.2009
     65 H21        28.8808    5.1931   32.4470 H           1 XNC       0.2432
     66 H22        31.8322    5.4606   33.5112 H           1 XNC       0.0389
     67 H23        26.0387    8.8854   33.9219 H           1 XNC       0.0510
     68 H24        28.7592    9.8640   36.9594 H           1 XNC       0.0491
     69 H25        28.4614    7.7046   37.9263 H           1 XNC       0.0520
     70 H26        29.0691   10.1264   33.3495 H           1 XNC       0.0776
     71 H27        28.7180   11.8414   33.3472 H           1 XNC       0.0776
     72 H28        26.2541   12.5540   32.8080 H           1 XNC       0.0557
     73 H29        24.4738   12.2514   31.2022 H           1 XNC       0.0599
     74 H30        24.3654   10.2261   29.8662 H           1 XNC       0.0559
     75 H31        26.0747    8.5154   30.1119 H           1 XNC       0.0599
     76 H32        27.8703    8.8125   31.6953 H           1 XNC       0.0557
@<TRIPOS>BOND
     1     1     2   2
     2     2     3   1
     3     2    10  am
     4     3     4  ar
     5     3     9  ar
     6     4     5  ar
     7     5     6  ar
     8     6     7  ar
     9     7     8   1
    10     7     9  ar
    11    10    11   1
    12    10    14   1
    13    11    12  ar
    14    11    26  ar
    15    12    13  ar
    16    13    29  ar
    17    14    15   1
    18    14    30   1
    19    15    16   1
    20    15    24   2
    21    16    17   2
    22    16    18   2
    23    16    19   1
    24    19    20   1
    25    20    21   1
    26    20    22   1
    27    20    23   1
    28    23    24   1
    29    24    25   1
    30    25    26   1
    31    26    27  ar
    32    27    28   1
    33    27    29  ar
    34    30    31  ar
    35    30    36  ar
    36    31    32   1
    37    31    33  ar
    38    33    34  ar
    39    34    35  ar
    40    34    37   1
    41    35    36  ar
    42    37    38   1
    43    38    39   1
    44    39    40  ar
    45    39    44  ar
    46    40    41  ar
    47    41    42  ar
    48    42    43  ar
    49    43    44  ar
    50     4    45   1
    51     5    46   1
    52     6    47   1
    53     8    48   1
    54     8    49   1
    55     8    50   1
    56    12    51   1
    57    13    52   1
    58    14    53   1
    59    19    54   1
    60    19    55   1
    61    21    56   1
    62    21    57   1
    63    21    58   1
    64    22    59   1
    65    22    60   1
    66    22    61   1
    67    23    62   1
    68    23    63   1
    69    25    64   1
    70    28    65   1
    71    29    66   1
    72    33    67   1
    73    35    68   1
    74    36    69   1
    75    38    70   1
    76    38    71   1
    77    40    72   1
    78    41    73   1
    79    42    74   1
    80    43    75   1
    81    44    76   1
@<TRIPOS>SUBSTRUCTURE
     1  XNC      2

