@<TRIPOS>MOLECULE
3gnw_ligand_036
    76    81
SMALL
GAST_HUCK
****
This file was generated by PARSER (from files_GN.cpp)

@<TRIPOS>ATOM
      1 O35        30.2506    4.5339   35.3153 O.2         1 XNC      -0.3687
      2 C16        29.0924    4.3021   34.9736 C.2         1 XNC       0.2510
      3 C17        28.8202    2.9330   34.7859 C.ar        1 XNC       0.1194
      4 C43        29.8410    1.9569   34.6156 C.ar        1 XNC      -0.0209
      5 C42        29.5055    0.6042   34.4027 C.ar        1 XNC      -0.0435
      6 C41        28.1575    0.2111   34.3663 C.ar        1 XNC      -0.0287
      7 C40        27.1615    1.1944   34.5518 C.ar        1 XNC       0.0301
      8 C44        25.7284    0.8618   34.5062 C.3         1 XNC      -0.0144
      9 N39        27.5387    2.4853   34.7487 N.ar        1 XNC      -0.2781
     10 N7         28.2515    5.3647   34.8565 N.am        1 XNC      -0.2078
     11 C4         26.9220    5.2443   34.4919 C.ar        1 XNC       0.0880
     12 C3         26.5858    4.6984   33.2282 C.ar        1 XNC      -0.0607
     13 C2         25.2440    4.5758   32.8305 C.ar        1 XNC      -0.0955
     14 C8         28.6709    6.7383   35.1936 C.3         1 XNC       0.1162
     15 C9         28.4273    6.9084   36.6379 C.2         1 XNC       0.0894
     16 S12        29.7873    7.3671   37.5930 S.o2        1 XNC      -0.0239
     17 O32        30.2188    8.8412   37.1829 O.2         1 XNC      -0.1768
     18 O33        31.0355    6.4085   37.3664 O.2         1 XNC      -0.1768
     19 C13        29.3514    7.3553   39.3395 C.3         1 XNC       0.0705
     20 C14        27.8529    7.7346   39.5428 C.3         1 XNC      -0.0050
     21 C37        27.4975    7.5126   41.0500 C.3         1 XNC      -0.0565
     22 C38        27.5857    9.2385   39.2056 C.3         1 XNC      -0.0565
     23 C15        26.9662    6.7925   38.6517 C.3         1 XNC       0.0036
     24 C10        27.2012    6.7362   37.1970 C.2         1 XNC       0.0422
     25 N11        26.0940    6.4048   36.5046 N.pl3       1 XNC      -0.2908
     26 C5         25.8872    5.7922   35.3057 C.ar        1 XNC       0.1100
     27 C6         24.5414    5.7024   34.8699 C.ar        1 XNC       0.0976
     28 O36        23.5357    6.2478   35.6100 O.3         1 XNC      -0.3423
     29 C1         24.2213    5.0753   33.6527 C.ar        1 XNC      -0.0580
     30 C18        28.1603    7.8029   34.2455 C.ar        1 XNC       0.0130
     31 C23        28.1151    7.5078   32.8538 C.ar        1 XNC       0.1283
     32 F34        28.5495    6.3599   32.3913 F           1 XNC      -0.1917
     33 C22        27.5325    8.4038   31.9445 C.ar        1 XNC      -0.0061
     34 C21        27.1005    9.6799   32.3677 C.ar        1 XNC       0.0849
     35 C20        27.2095   10.0209   33.7357 C.ar        1 XNC      -0.0435
     36 C19        27.7106    9.0913   34.6663 C.ar        1 XNC      -0.0671
     37 O24        26.4699   10.5172   31.4835 O.3         1 XNC      -0.3110
     38 C25        27.3117   11.2580   30.5786 C.3         1 XNC       0.1027
     39 C26        26.8691   10.9756   29.1874 C.ar        1 XNC      -0.0131
     40 C31        26.1516   11.9374   28.4362 C.ar        1 XNC      -0.0578
     41 C30        25.7413   11.6537   27.1163 C.ar        1 XNC      -0.0685
     42 C29        26.0272   10.4014   26.5396 C.ar        1 XNC      -0.0687
     43 C28        26.7470    9.4442   27.2789 C.ar        1 XNC      -0.0685
     44 C27        27.1755    9.7301   28.5895 C.ar        1 XNC      -0.0578
     45 H1         30.8338    2.2120   34.6471 H           1 XNC       0.0705
     46 H2         30.2486   -0.0948   34.2883 H           1 XNC       0.0729
     47 H3         27.9144   -0.7753   34.2083 H           1 XNC       0.0684
     48 H4         25.1141    1.7554   34.6364 H           1 XNC       0.0421
     49 H5         25.4842    0.1614   35.3057 H           1 XNC       0.0421
     50 H6         25.4796    0.4138   33.5416 H           1 XNC       0.0421
     51 H7         27.3202    4.3567   32.6051 H           1 XNC       0.0382
     52 H8         25.0110    4.1392   31.9363 H           1 XNC       0.0451
     53 H9         29.7466    6.8241   35.0083 H           1 XNC       0.0812
     54 H10        30.0098    8.0435   39.8755 H           1 XNC       0.0503
     55 H11        29.5366    6.3447   39.7150 H           1 XNC       0.0503
     56 H12        26.4476    7.7454   41.2431 H           1 XNC       0.0237
     57 H13        28.1116    8.1513   41.6886 H           1 XNC       0.0237
     58 H14        27.6719    6.4754   41.3441 H           1 XNC       0.0237
     59 H15        27.7722    9.4534   38.1541 H           1 XNC       0.0237
     60 H16        28.2374    9.8799   39.8024 H           1 XNC       0.0237
     61 H17        26.5472    9.5044   39.4197 H           1 XNC       0.0237
     62 H18        25.9214    7.0611   38.8450 H           1 XNC       0.0444
     63 H19        27.0870    5.7635   39.0097 H           1 XNC       0.0444
     64 H20        25.2745    6.5943   36.9891 H           1 XNC       0.2009
     65 H21        22.7693    5.6445   35.5077 H           1 XNC       0.2432
     66 H22        23.2432    5.0006   33.3511 H           1 XNC       0.0389
     67 H23        27.4325    8.1460   30.9607 H           1 XNC       0.0510
     68 H24        26.8795   10.9377   34.0599 H           1 XNC       0.0491
     69 H25        27.7497    9.3606   35.6575 H           1 XNC       0.0520
     70 H26        28.3827   11.0235   30.6672 H           1 XNC       0.0776
     71 H27        27.2054   12.3170   30.8301 H           1 XNC       0.0776
     72 H28        25.9233   12.8492   28.8422 H           1 XNC       0.0557
     73 H29        25.2228   12.3557   26.5783 H           1 XNC       0.0599
     74 H30        25.7264   10.1943   25.5815 H           1 XNC       0.0559
     75 H31        26.9636    8.5380   26.8582 H           1 XNC       0.0599
     76 H32        27.7192    9.0307   29.0948 H           1 XNC       0.0557
@<TRIPOS>BOND
     1     1     2   2
     2     2     3   1
     3     2    10  am
     4     3     4  ar
     5     3     9  ar
     6     4     5  ar
     7     5     6  ar
     8     6     7  ar
     9     7     8   1
    10     7     9  ar
    11    10    11   1
    12    10    14   1
    13    11    12  ar
    14    11    26  ar
    15    12    13  ar
    16    13    29  ar
    17    14    15   1
    18    14    30   1
    19    15    16   1
    20    15    24   2
    21    16    17   2
    22    16    18   2
    23    16    19   1
    24    19    20   1
    25    20    21   1
    26    20    22   1
    27    20    23   1
    28    23    24   1
    29    24    25   1
    30    25    26   1
    31    26    27  ar
    32    27    28   1
    33    27    29  ar
    34    30    31  ar
    35    30    36  ar
    36    31    32   1
    37    31    33  ar
    38    33    34  ar
    39    34    35  ar
    40    34    37   1
    41    35    36  ar
    42    37    38   1
    43    38    39   1
    44    39    40  ar
    45    39    44  ar
    46    40    41  ar
    47    41    42  ar
    48    42    43  ar
    49    43    44  ar
    50     4    45   1
    51     5    46   1
    52     6    47   1
    53     8    48   1
    54     8    49   1
    55     8    50   1
    56    12    51   1
    57    13    52   1
    58    14    53   1
    59    19    54   1
    60    19    55   1
    61    21    56   1
    62    21    57   1
    63    21    58   1
    64    22    59   1
    65    22    60   1
    66    22    61   1
    67    23    62   1
    68    23    63   1
    69    25    64   1
    70    28    65   1
    71    29    66   1
    72    33    67   1
    73    35    68   1
    74    36    69   1
    75    38    70   1
    76    38    71   1
    77    40    72   1
    78    41    73   1
    79    42    74   1
    80    43    75   1
    81    44    76   1
@<TRIPOS>SUBSTRUCTURE
     1  XNC      2

