@<TRIPOS>MOLECULE
3gnw_ligand_078
    76    81
SMALL
GAST_HUCK
****
This file was generated by PARSER (from files_GN.cpp)

@<TRIPOS>ATOM
      1 O35        29.7906    1.4578   37.4075 O.2         1 XNC      -0.3687
      2 C16        28.6680    1.7933   37.7829 C.2         1 XNC       0.2510
      3 C17        27.6659    1.4784   36.8467 C.ar        1 XNC       0.1194
      4 C43        27.8890    1.5608   35.4452 C.ar        1 XNC      -0.0209
      5 C42        26.8571    1.2436   34.5421 C.ar        1 XNC      -0.0435
      6 C41        25.5971    0.8464   35.0221 C.ar        1 XNC      -0.0287
      7 C40        25.3947    0.7637   36.4147 C.ar        1 XNC       0.0301
      8 C44        24.0723    0.4333   36.9783 C.3         1 XNC      -0.0144
      9 N39        26.4322    1.0600   37.2474 N.ar        1 XNC      -0.2781
     10 N7         28.5401    2.4302   38.9806 N.am        1 XNC      -0.2078
     11 C4         29.6660    2.6597   39.7599 C.ar        1 XNC       0.0880
     12 C3         30.4278    1.5631   40.2312 C.ar        1 XNC      -0.0607
     13 C2         31.5466    1.7558   41.0604 C.ar        1 XNC      -0.0955
     14 C8         27.3074    3.0759   39.4556 C.3         1 XNC       0.1162
     15 C9         27.2709    4.4399   38.9008 C.2         1 XNC       0.0894
     16 S12        25.8796    4.8583   37.9667 S.o2        1 XNC      -0.0239
     17 O32        24.5414    4.5850   38.7809 O.2         1 XNC      -0.1768
     18 O33        25.8205    3.9834   36.6400 O.2         1 XNC      -0.1768
     19 C13        25.9434    6.5835   37.4606 C.3         1 XNC       0.0705
     20 C14        27.4212    7.0666   37.3277 C.3         1 XNC      -0.0050
     21 C37        28.1540    6.3888   36.1204 C.3         1 XNC      -0.0565
     22 C38        27.4135    8.6101   37.0796 C.3         1 XNC      -0.0565
     23 C15        28.1559    6.7557   38.6772 C.3         1 XNC       0.0036
     24 C10        28.2677    5.3426   39.0864 C.2         1 XNC       0.0422
     25 N11        29.3848    5.1042   39.7943 N.pl3       1 XNC      -0.2908
     26 C5         30.0507    3.9723   40.1463 C.ar        1 XNC       0.1100
     27 C6         31.2113    4.1595   40.9437 C.ar        1 XNC       0.0976
     28 O36        31.6448    5.4140   41.2692 O.3         1 XNC      -0.3423
     29 C1         31.9365    3.0524   41.4137 C.ar        1 XNC      -0.0580
     30 C18        27.0180    2.8894   40.9321 C.ar        1 XNC       0.0130
     31 C23        26.4238    3.8645   41.7814 C.ar        1 XNC       0.1283
     32 F34        26.0679    5.0471   41.3627 F           1 XNC      -0.1917
     33 C22        26.1576    3.5753   43.1356 C.ar        1 XNC      -0.0061
     34 C21        26.4897    2.3205   43.6812 C.ar        1 XNC       0.0849
     35 C20        27.0259    1.3294   42.8439 C.ar        1 XNC      -0.0435
     36 C19        27.2731    1.6103   41.4922 C.ar        1 XNC      -0.0671
     37 O24        26.2454    2.0313   44.9980 O.3         1 XNC      -0.3110
     38 C25        27.3968    2.1187   45.8690 C.3         1 XNC       0.1027
     39 C26        27.3923    0.9423   46.7767 C.ar        1 XNC      -0.0131
     40 C31        28.4766    0.0338   46.8103 C.ar        1 XNC      -0.0578
     41 C30        28.4474   -1.0909   47.6598 C.ar        1 XNC      -0.0685
     42 C29        27.3322   -1.3238   48.4846 C.ar        1 XNC      -0.0687
     43 C28        26.2523   -0.4272   48.4680 C.ar        1 XNC      -0.0685
     44 C27        26.2830    0.6983   47.6219 C.ar        1 XNC      -0.0578
     45 H1         28.7894    1.8847   35.0740 H           1 XNC       0.0705
     46 H2         27.0171    1.3191   33.5356 H           1 XNC       0.0729
     47 H3         24.8409    0.6370   34.3651 H           1 XNC       0.0684
     48 H4         24.1003    0.4267   38.0701 H           1 XNC       0.0421
     49 H5         23.7565   -0.5496   36.6346 H           1 XNC       0.0421
     50 H6         23.3409    1.1770   36.6604 H           1 XNC       0.0421
     51 H7         30.1644    0.6028   39.9876 H           1 XNC       0.0382
     52 H8         32.0820    0.9519   41.4057 H           1 XNC       0.0451
     53 H9         26.4529    2.5395   39.0586 H           1 XNC       0.0812
     54 H10        25.4282    7.1694   38.2253 H           1 XNC       0.0503
     55 H11        25.3993    6.7039   36.5188 H           1 XNC       0.0503
     56 H12        29.1747    6.7657   36.0334 H           1 XNC       0.0237
     57 H13        27.6300    6.5973   35.1843 H           1 XNC       0.0237
     58 H14        28.2122    5.3059   36.2383 H           1 XNC       0.0237
     59 H15        26.9351    9.1391   37.9090 H           1 XNC       0.0237
     60 H16        26.8679    8.8547   36.1635 H           1 XNC       0.0237
     61 H17        28.4323    8.9922   36.9800 H           1 XNC       0.0237
     62 H18        27.6424    7.2742   39.4905 H           1 XNC       0.0444
     63 H19        29.1552    7.2068   38.6064 H           1 XNC       0.0444
     64 H20        29.8276    5.9165   40.0903 H           1 XNC       0.2009
     65 H21        32.5870    5.4588   40.9893 H           1 XNC       0.2432
     66 H22        32.7564    3.1889   42.0134 H           1 XNC       0.0389
     67 H23        25.7113    4.2746   43.7352 H           1 XNC       0.0510
     68 H24        27.2436    0.4001   43.2215 H           1 XNC       0.0491
     69 H25        27.6612    0.8574   40.9117 H           1 XNC       0.0520
     70 H26        27.3179    3.0307   46.4603 H           1 XNC       0.0776
     71 H27        28.3452    2.1707   45.3188 H           1 XNC       0.0776
     72 H28        29.2937    0.1783   46.2142 H           1 XNC       0.0557
     73 H29        29.2401   -1.7402   47.6760 H           1 XNC       0.0599
     74 H30        27.3128   -2.1393   49.0986 H           1 XNC       0.0559
     75 H31        25.4432   -0.5931   49.0696 H           1 XNC       0.0599
     76 H32        25.4819    1.3410   47.6221 H           1 XNC       0.0557
@<TRIPOS>BOND
     1     1     2   2
     2     2     3   1
     3     2    10  am
     4     3     4  ar
     5     3     9  ar
     6     4     5  ar
     7     5     6  ar
     8     6     7  ar
     9     7     8   1
    10     7     9  ar
    11    10    11   1
    12    10    14   1
    13    11    12  ar
    14    11    26  ar
    15    12    13  ar
    16    13    29  ar
    17    14    15   1
    18    14    30   1
    19    15    16   1
    20    15    24   2
    21    16    17   2
    22    16    18   2
    23    16    19   1
    24    19    20   1
    25    20    21   1
    26    20    22   1
    27    20    23   1
    28    23    24   1
    29    24    25   1
    30    25    26   1
    31    26    27  ar
    32    27    28   1
    33    27    29  ar
    34    30    31  ar
    35    30    36  ar
    36    31    32   1
    37    31    33  ar
    38    33    34  ar
    39    34    35  ar
    40    34    37   1
    41    35    36  ar
    42    37    38   1
    43    38    39   1
    44    39    40  ar
    45    39    44  ar
    46    40    41  ar
    47    41    42  ar
    48    42    43  ar
    49    43    44  ar
    50     4    45   1
    51     5    46   1
    52     6    47   1
    53     8    48   1
    54     8    49   1
    55     8    50   1
    56    12    51   1
    57    13    52   1
    58    14    53   1
    59    19    54   1
    60    19    55   1
    61    21    56   1
    62    21    57   1
    63    21    58   1
    64    22    59   1
    65    22    60   1
    66    22    61   1
    67    23    62   1
    68    23    63   1
    69    25    64   1
    70    28    65   1
    71    29    66   1
    72    33    67   1
    73    35    68   1
    74    36    69   1
    75    38    70   1
    76    38    71   1
    77    40    72   1
    78    41    73   1
    79    42    74   1
    80    43    75   1
    81    44    76   1
@<TRIPOS>SUBSTRUCTURE
     1  XNC      2

