@<TRIPOS>MOLECULE
3gnw_ligand_046
    76    81
SMALL
GAST_HUCK
****
This file was generated by PARSER (from files_GN.cpp)

@<TRIPOS>ATOM
      1 O35        34.0071    4.1667   43.6259 O.2         1 XNC      -0.3687
      2 C16        33.4712    5.1212   44.1800 C.2         1 XNC       0.2510
      3 C17        34.3781    5.9494   44.8475 C.ar        1 XNC       0.1194
      4 C43        34.2807    7.3631   44.8430 C.ar        1 XNC      -0.0209
      5 C42        35.2016    8.1255   45.5805 C.ar        1 XNC      -0.0435
      6 C41        36.2344    7.4860   46.2898 C.ar        1 XNC      -0.0287
      7 C40        36.3350    6.0808   46.2473 C.ar        1 XNC       0.0301
      8 C44        37.4033    5.3610   46.9606 C.3         1 XNC      -0.0144
      9 N39        35.4105    5.3842   45.5358 N.ar        1 XNC      -0.2781
     10 N7         32.1280    5.2939   44.0908 N.am        1 XNC      -0.2078
     11 C4         31.4517    6.1711   44.9389 C.ar        1 XNC       0.0880
     12 C3         31.6634    6.0530   46.3488 C.ar        1 XNC      -0.0607
     13 C2         30.9384    6.8167   47.2623 C.ar        1 XNC      -0.0955
     14 C8         31.3418    4.6317   43.0354 C.3         1 XNC       0.1162
     15 C9         31.3120    5.6088   41.9330 C.2         1 XNC       0.0894
     16 S12        32.2521    5.2318   40.5317 S.o2        1 XNC      -0.0239
     17 O32        31.9435    3.7844   39.9490 O.2         1 XNC      -0.1768
     18 O33        33.7958    5.2754   40.9127 O.2         1 XNC      -0.1768
     19 C13        31.9904    6.4652   39.2459 C.3         1 XNC       0.0705
     20 C14        31.6396    7.8571   39.8604 C.3         1 XNC      -0.0050
     21 C37        32.8744    8.5081   40.5711 C.3         1 XNC      -0.0565
     22 C38        31.1928    8.8037   38.7002 C.3         1 XNC      -0.0565
     23 C15        30.4435    7.6646   40.8571 C.3         1 XNC       0.0036
     24 C10        30.6914    6.8100   42.0310 C.2         1 XNC       0.0422
     25 N11        30.1714    7.3025   43.1707 N.pl3       1 XNC      -0.2908
     26 C5         30.4595    7.0763   44.4816 C.ar        1 XNC       0.1100
     27 C6         29.7137    7.8307   45.4220 C.ar        1 XNC       0.0976
     28 O36        28.7392    8.6975   45.0333 O.3         1 XNC      -0.3423
     29 C1         29.9556    7.7019   46.8001 C.ar        1 XNC      -0.0580
     30 C18        29.9996    3.9984   43.3805 C.ar        1 XNC       0.0130
     31 C23        29.1833    3.3710   42.3872 C.ar        1 XNC       0.1283
     32 F34        29.5185    3.3427   41.1244 F           1 XNC      -0.1917
     33 C22        27.9612    2.7545   42.7328 C.ar        1 XNC      -0.0061
     34 C21        27.5200    2.7257   44.0693 C.ar        1 XNC       0.0849
     35 C20        28.3109    3.3281   45.0611 C.ar        1 XNC      -0.0435
     36 C19        29.5480    3.9004   44.7299 C.ar        1 XNC      -0.0671
     37 O24        26.3096    2.1756   44.3946 O.3         1 XNC      -0.3110
     38 C25        26.2426    0.7352   44.4303 C.3         1 XNC       0.1027
     39 C26        26.5750    0.1752   45.7674 C.ar        1 XNC      -0.0131
     40 C31        25.5530   -0.2538   46.6529 C.ar        1 XNC      -0.0578
     41 C30        25.8719   -0.8057   47.9047 C.ar        1 XNC      -0.0685
     42 C29        27.2150   -0.9363   48.2964 C.ar        1 XNC      -0.0687
     43 C28        28.2425   -0.5203   47.4284 C.ar        1 XNC      -0.0685
     44 C27        27.9229    0.0271   46.1740 C.ar        1 XNC      -0.0578
     45 H1         33.5533    7.8416   44.3043 H           1 XNC       0.0705
     46 H2         35.1252    9.1462   45.5946 H           1 XNC       0.0729
     47 H3         36.9059    8.0449   46.8149 H           1 XNC       0.0684
     48 H4         37.3543    4.2870   46.7704 H           1 XNC       0.0421
     49 H5         37.3018    5.5229   48.0344 H           1 XNC       0.0421
     50 H6         38.3798    5.7260   46.6351 H           1 XNC       0.0421
     51 H7         32.3426    5.3826   46.7099 H           1 XNC       0.0382
     52 H8         31.1054    6.7062   48.2649 H           1 XNC       0.0451
     53 H9         31.8860    3.7519   42.6891 H           1 XNC       0.0812
     54 H10        31.1628    6.1105   38.6250 H           1 XNC       0.0503
     55 H11        32.8803    6.5220   38.6131 H           1 XNC       0.0503
     56 H12        32.6221    9.4976   40.9580 H           1 XNC       0.0237
     57 H13        33.7061    8.6185   39.8719 H           1 XNC       0.0237
     58 H14        33.2207    7.9055   41.4110 H           1 XNC       0.0237
     59 H15        30.3091    8.4122   38.1916 H           1 XNC       0.0237
     60 H16        31.9897    8.9080   37.9609 H           1 XNC       0.0237
     61 H17        30.9473    9.7974   39.0807 H           1 XNC       0.0237
     62 H18        29.6010    7.2209   40.3191 H           1 XNC       0.0444
     63 H19        30.1112    8.6607   41.1723 H           1 XNC       0.0444
     64 H20        29.5151    8.0045   43.0315 H           1 XNC       0.2009
     65 H21        27.9710    8.4918   45.6090 H           1 XNC       0.2432
     66 H22        29.4257    8.2636   47.4697 H           1 XNC       0.0389
     67 H23        27.3831    2.3230   42.0071 H           1 XNC       0.0510
     68 H24        28.0014    3.3167   46.0381 H           1 XNC       0.0491
     69 H25        30.1225    4.1965   45.5056 H           1 XNC       0.0520
     70 H26        26.8626    0.2614   43.6590 H           1 XNC       0.0776
     71 H27        25.2092    0.4935   44.1771 H           1 XNC       0.0776
     72 H28        24.5691   -0.1723   46.3849 H           1 XNC       0.0557
     73 H29        25.1259   -1.1237   48.5293 H           1 XNC       0.0599
     74 H30        27.4455   -1.3478   49.2025 H           1 XNC       0.0559
     75 H31        29.2203   -0.6324   47.7055 H           1 XNC       0.0599
     76 H32        28.6843    0.2948   45.5447 H           1 XNC       0.0557
@<TRIPOS>BOND
     1     1     2   2
     2     2     3   1
     3     2    10  am
     4     3     4  ar
     5     3     9  ar
     6     4     5  ar
     7     5     6  ar
     8     6     7  ar
     9     7     8   1
    10     7     9  ar
    11    10    11   1
    12    10    14   1
    13    11    12  ar
    14    11    26  ar
    15    12    13  ar
    16    13    29  ar
    17    14    15   1
    18    14    30   1
    19    15    16   1
    20    15    24   2
    21    16    17   2
    22    16    18   2
    23    16    19   1
    24    19    20   1
    25    20    21   1
    26    20    22   1
    27    20    23   1
    28    23    24   1
    29    24    25   1
    30    25    26   1
    31    26    27  ar
    32    27    28   1
    33    27    29  ar
    34    30    31  ar
    35    30    36  ar
    36    31    32   1
    37    31    33  ar
    38    33    34  ar
    39    34    35  ar
    40    34    37   1
    41    35    36  ar
    42    37    38   1
    43    38    39   1
    44    39    40  ar
    45    39    44  ar
    46    40    41  ar
    47    41    42  ar
    48    42    43  ar
    49    43    44  ar
    50     4    45   1
    51     5    46   1
    52     6    47   1
    53     8    48   1
    54     8    49   1
    55     8    50   1
    56    12    51   1
    57    13    52   1
    58    14    53   1
    59    19    54   1
    60    19    55   1
    61    21    56   1
    62    21    57   1
    63    21    58   1
    64    22    59   1
    65    22    60   1
    66    22    61   1
    67    23    62   1
    68    23    63   1
    69    25    64   1
    70    28    65   1
    71    29    66   1
    72    33    67   1
    73    35    68   1
    74    36    69   1
    75    38    70   1
    76    38    71   1
    77    40    72   1
    78    41    73   1
    79    42    74   1
    80    43    75   1
    81    44    76   1
@<TRIPOS>SUBSTRUCTURE
     1  XNC      2

