@<TRIPOS>MOLECULE
3gnw_ligand_024
    76    81
SMALL
GAST_HUCK
****
This file was generated by PARSER (from files_GN.cpp)

@<TRIPOS>ATOM
      1 O35        34.0171    7.7494   40.3509 O.2         1 XNC      -0.3687
      2 C16        33.2415    7.7181   41.3016 C.2         1 XNC       0.2510
      3 C17        31.9840    8.3037   41.0156 C.ar        1 XNC       0.1194
      4 C43        31.4454    8.3676   39.7007 C.ar        1 XNC      -0.0209
      5 C42        30.1853    8.9498   39.4751 C.ar        1 XNC      -0.0435
      6 C41        29.4532    9.4743   40.5527 C.ar        1 XNC      -0.0287
      7 C40        30.0005    9.4203   41.8494 C.ar        1 XNC       0.0301
      8 C44        29.3171    9.9521   43.0388 C.3         1 XNC      -0.0144
      9 N39        31.2211    8.8432   42.0036 N.ar        1 XNC      -0.2781
     10 N7         33.6548    7.1091   42.4481 N.am        1 XNC      -0.2078
     11 C4         32.7904    6.9525   43.4926 C.ar        1 XNC       0.0880
     12 C3         32.5931    7.9999   44.4197 C.ar        1 XNC      -0.0607
     13 C2         31.6063    7.8877   45.4148 C.ar        1 XNC      -0.0955
     14 C8         34.8415    6.2460   42.4776 C.3         1 XNC       0.1162
     15 C9         34.5229    4.9259   41.8953 C.2         1 XNC       0.0894
     16 S12        35.6430    4.3491   40.7061 S.o2        1 XNC      -0.0239
     17 O32        37.0868    4.1419   41.3378 O.2         1 XNC      -0.1768
     18 O33        35.7858    5.4201   39.5390 O.2         1 XNC      -0.1768
     19 C13        35.0957    2.8059   39.9505 C.3         1 XNC       0.0705
     20 C14        33.5563    2.6061   40.1066 C.3         1 XNC      -0.0050
     21 C37        32.7526    3.5529   39.1540 C.3         1 XNC      -0.0565
     22 C38        33.2111    1.1291   39.7230 C.3         1 XNC      -0.0565
     23 C15        33.1823    2.8596   41.6110 C.3         1 XNC       0.0036
     24 C10        33.3725    4.2320   42.1261 C.2         1 XNC       0.0422
     25 N11        32.3526    4.6132   42.9270 N.pl3       1 XNC      -0.2908
     26 C5         32.0800    5.7399   43.6388 C.ar        1 XNC       0.1100
     27 C6         31.0668    5.6479   44.6303 C.ar        1 XNC       0.0976
     28 O36        30.3957    4.4777   44.8126 O.3         1 XNC      -0.3423
     29 C1         30.8213    6.7271   45.4979 C.ar        1 XNC      -0.0580
     30 C18        35.6779    6.1198   43.7465 C.ar        1 XNC       0.0130
     31 C23        37.1057    6.1884   43.7293 C.ar        1 XNC       0.1283
     32 F34        37.7852    6.3415   42.6248 F           1 XNC      -0.1917
     33 C22        37.8578    6.0787   44.9187 C.ar        1 XNC      -0.0061
     34 C21        37.2261    5.9161   46.1684 C.ar        1 XNC       0.0849
     35 C20        35.8254    5.8396   46.2062 C.ar        1 XNC      -0.0435
     36 C19        35.0761    5.8842   45.0168 C.ar        1 XNC      -0.0671
     37 O24        37.9629    5.8759   47.3174 O.3         1 XNC      -0.3110
     38 C25        38.3974    4.5771   47.7742 C.3         1 XNC       0.1027
     39 C26        37.7600    4.2765   49.0854 C.ar        1 XNC      -0.0131
     40 C31        36.3849    3.9515   49.1552 C.ar        1 XNC      -0.0578
     41 C30        35.7507    3.7498   50.3946 C.ar        1 XNC      -0.0685
     42 C29        36.4919    3.8498   51.5856 C.ar        1 XNC      -0.0687
     43 C28        37.8664    4.1408   51.5349 C.ar        1 XNC      -0.0685
     44 C27        38.4976    4.3507   50.2940 C.ar        1 XNC      -0.0578
     45 H1         31.9547    7.9799   38.9020 H           1 XNC       0.0705
     46 H2         29.8037    8.9891   38.5311 H           1 XNC       0.0729
     47 H3         28.5310    9.8896   40.3861 H           1 XNC       0.0684
     48 H4         29.9358   10.7224   43.4986 H           1 XNC       0.0421
     49 H5         29.1591    9.1469   43.7558 H           1 XNC       0.0421
     50 H6         28.3483   10.3898   42.7881 H           1 XNC       0.0421
     51 H7         33.1428    8.8573   44.3509 H           1 XNC       0.0382
     52 H8         31.4462    8.6629   46.0669 H           1 XNC       0.0451
     53 H9         35.5321    6.7355   41.7949 H           1 XNC       0.0812
     54 H10        35.6321    1.9959   40.4511 H           1 XNC       0.0503
     55 H11        35.3888    2.7934   38.8980 H           1 XNC       0.0503
     56 H12        31.6781    3.4083   39.2861 H           1 XNC       0.0237
     57 H13        32.9980    3.3445   38.1100 H           1 XNC       0.0237
     58 H14        32.9762    4.6031   39.3470 H           1 XNC       0.0237
     59 H15        33.7188    0.4230   40.3845 H           1 XNC       0.0237
     60 H16        33.5216    0.9160   38.6968 H           1 XNC       0.0237
     61 H17        32.1368    0.9463   39.7965 H           1 XNC       0.0237
     62 H18        33.7869    2.2000   42.2424 H           1 XNC       0.0444
     63 H19        32.1458    2.5315   41.7476 H           1 XNC       0.0444
     64 H20        31.7048    3.9102   43.0827 H           1 XNC       0.2009
     65 H21        29.4434    4.7115   44.9222 H           1 XNC       0.2432
     66 H22        30.0895    6.6617   46.2090 H           1 XNC       0.0389
     67 H23        38.8845    6.1207   44.8777 H           1 XNC       0.0510
     68 H24        35.3412    5.7480   47.0911 H           1 XNC       0.0491
     69 H25        34.0648    5.7512   45.1013 H           1 XNC       0.0520
     70 H26        39.4860    4.6275   47.8840 H           1 XNC       0.0776
     71 H27        38.1926    3.7602   47.0700 H           1 XNC       0.0776
     72 H28        35.8331    3.8420   48.3031 H           1 XNC       0.0557
     73 H29        34.7538    3.5246   50.4304 H           1 XNC       0.0599
     74 H30        36.0275    3.7067   52.4845 H           1 XNC       0.0559
     75 H31        38.4073    4.2020   52.4014 H           1 XNC       0.0599
     76 H32        39.4950    4.5682   50.2761 H           1 XNC       0.0557
@<TRIPOS>BOND
     1     1     2   2
     2     2     3   1
     3     2    10  am
     4     3     4  ar
     5     3     9  ar
     6     4     5  ar
     7     5     6  ar
     8     6     7  ar
     9     7     8   1
    10     7     9  ar
    11    10    11   1
    12    10    14   1
    13    11    12  ar
    14    11    26  ar
    15    12    13  ar
    16    13    29  ar
    17    14    15   1
    18    14    30   1
    19    15    16   1
    20    15    24   2
    21    16    17   2
    22    16    18   2
    23    16    19   1
    24    19    20   1
    25    20    21   1
    26    20    22   1
    27    20    23   1
    28    23    24   1
    29    24    25   1
    30    25    26   1
    31    26    27  ar
    32    27    28   1
    33    27    29  ar
    34    30    31  ar
    35    30    36  ar
    36    31    32   1
    37    31    33  ar
    38    33    34  ar
    39    34    35  ar
    40    34    37   1
    41    35    36  ar
    42    37    38   1
    43    38    39   1
    44    39    40  ar
    45    39    44  ar
    46    40    41  ar
    47    41    42  ar
    48    42    43  ar
    49    43    44  ar
    50     4    45   1
    51     5    46   1
    52     6    47   1
    53     8    48   1
    54     8    49   1
    55     8    50   1
    56    12    51   1
    57    13    52   1
    58    14    53   1
    59    19    54   1
    60    19    55   1
    61    21    56   1
    62    21    57   1
    63    21    58   1
    64    22    59   1
    65    22    60   1
    66    22    61   1
    67    23    62   1
    68    23    63   1
    69    25    64   1
    70    28    65   1
    71    29    66   1
    72    33    67   1
    73    35    68   1
    74    36    69   1
    75    38    70   1
    76    38    71   1
    77    40    72   1
    78    41    73   1
    79    42    74   1
    80    43    75   1
    81    44    76   1
@<TRIPOS>SUBSTRUCTURE
     1  XNC      2

