@<TRIPOS>MOLECULE
3gnw_ligand_008
    76    81
SMALL
GAST_HUCK
****
This file was generated by PARSER (from files_GN.cpp)

@<TRIPOS>ATOM
      1 O35        36.9423    5.4572   44.9782 O.2         1 XNC      -0.3687
      2 C16        36.3464    4.4818   44.5431 C.2         1 XNC       0.2510
      3 C17        36.5713    3.3246   45.2598 C.ar        1 XNC       0.1194
      4 C43        37.8339    2.6905   45.2953 C.ar        1 XNC      -0.0209
      5 C42        37.9785    1.5079   46.0385 C.ar        1 XNC      -0.0435
      6 C41        36.8928    1.0052   46.7779 C.ar        1 XNC      -0.0287
      7 C40        35.6563    1.6894   46.7437 C.ar        1 XNC       0.0301
      8 C44        34.5127    1.2661   47.5735 C.3         1 XNC      -0.0144
      9 N39        35.5393    2.8074   45.9773 N.ar        1 XNC      -0.2781
     10 N7         35.4632    4.5683   43.5210 N.am        1 XNC      -0.2078
     11 C4         35.0269    3.4435   42.8271 C.ar        1 XNC       0.0880
     12 C3         35.9832    2.5136   42.3477 C.ar        1 XNC      -0.0607
     13 C2         35.6088    1.3976   41.5866 C.ar        1 XNC      -0.0955
     14 C8         34.9705    5.8657   43.0656 C.3         1 XNC       0.1162
     15 C9         33.6630    6.0722   43.7200 C.2         1 XNC       0.0894
     16 S12        33.5468    7.3587   44.8637 S.o2        1 XNC      -0.0239
     17 O32        33.7669    8.7765   44.1720 O.2         1 XNC      -0.1768
     18 O33        34.6778    7.1738   45.9690 O.2         1 XNC      -0.1768
     19 C13        31.9500    7.3692   45.7081 C.3         1 XNC       0.0705
     20 C14        31.2371    5.9824   45.6173 C.3         1 XNC      -0.0050
     21 C37        31.9078    4.9355   46.5702 C.3         1 XNC      -0.0565
     22 C38        29.7490    6.1589   46.0641 C.3         1 XNC      -0.0565
     23 C15        31.2799    5.5081   44.1207 C.3         1 XNC       0.0036
     24 C10        32.6152    5.2222   43.5614 C.2         1 XNC       0.0422
     25 N11        32.6551    4.0952   42.8261 N.pl3       1 XNC      -0.2908
     26 C5         33.6615    3.2550   42.4670 C.ar        1 XNC       0.1100
     27 C6         33.2870    2.1110   41.7150 C.ar        1 XNC       0.0976
     28 O36        31.9826    1.8646   41.4082 O.3         1 XNC      -0.3423
     29 C1         34.2575    1.1883   41.2852 C.ar        1 XNC      -0.0580
     30 C18        35.0563    6.0545   41.5660 C.ar        1 XNC       0.0130
     31 C23        36.1945    5.5697   40.8628 C.ar        1 XNC       0.1283
     32 F34        37.2086    5.0167   41.4776 F           1 XNC      -0.1917
     33 C22        36.3015    5.7119   39.4647 C.ar        1 XNC      -0.0061
     34 C21        35.3302    6.4235   38.7484 C.ar        1 XNC       0.0849
     35 C20        34.2064    6.9339   39.4225 C.ar        1 XNC      -0.0435
     36 C19        34.0760    6.7522   40.8173 C.ar        1 XNC      -0.0671
     37 O24        35.6034    6.7278   37.4370 O.3         1 XNC      -0.3110
     38 C25        35.9226    8.1102   37.1991 C.3         1 XNC       0.1027
     39 C26        37.0381    8.6376   38.0450 C.ar        1 XNC      -0.0131
     40 C31        36.7736    9.3768   39.2231 C.ar        1 XNC      -0.0578
     41 C30        37.8137    9.7524   40.0968 C.ar        1 XNC      -0.0685
     42 C29        39.1436    9.4114   39.7925 C.ar        1 XNC      -0.0687
     43 C28        39.4274    8.6844   38.6210 C.ar        1 XNC      -0.0685
     44 C27        38.3797    8.2952   37.7579 C.ar        1 XNC      -0.0578
     45 H1         38.6241    3.0577   44.7604 H           1 XNC       0.0705
     46 H2         38.8746    1.0193   46.0534 H           1 XNC       0.0729
     47 H3         37.0029    0.1577   47.3370 H           1 XNC       0.0684
     48 H4         33.6439    1.9100   47.4101 H           1 XNC       0.0421
     49 H5         34.7978    1.3330   48.6236 H           1 XNC       0.0421
     50 H6         34.2366    0.2396   47.3390 H           1 XNC       0.0421
     51 H7         36.9808    2.6578   42.5273 H           1 XNC       0.0382
     52 H8         36.3179    0.7380   41.2548 H           1 XNC       0.0451
     53 H9         35.6418    6.6607   43.4056 H           1 XNC       0.0812
     54 H10        31.3364    8.1326   45.2188 H           1 XNC       0.0503
     55 H11        32.0875    7.6758   46.7473 H           1 XNC       0.0503
     56 H12        31.4077    3.9672   46.4919 H           1 XNC       0.0237
     57 H13        31.8466    5.2653   47.6110 H           1 XNC       0.0237
     58 H14        32.9633    4.7873   46.3296 H           1 XNC       0.0237
     59 H15        29.2341    6.8747   45.4236 H           1 XNC       0.0237
     60 H16        29.6934    6.5240   47.0908 H           1 XNC       0.0237
     61 H17        29.2099    5.2111   46.0113 H           1 XNC       0.0237
     62 H18        30.8224    6.2768   43.4897 H           1 XNC       0.0444
     63 H19        30.6343    4.6248   44.0363 H           1 XNC       0.0444
     64 H20        31.7738    3.7763   42.5608 H           1 XNC       0.2009
     65 H21        31.8801    0.8920   41.3981 H           1 XNC       0.2432
     66 H22        33.9839    0.3642   40.7428 H           1 XNC       0.0389
     67 H23        37.1340    5.3702   38.9820 H           1 XNC       0.0510
     68 H24        33.5110    7.4954   38.9275 H           1 XNC       0.0491
     69 H25        33.2742    7.1847   41.2865 H           1 XNC       0.0520
     70 H26        35.0226    8.6988   37.3425 H           1 XNC       0.0776
     71 H27        36.1968    8.2230   36.1512 H           1 XNC       0.0776
     72 H28        35.8104    9.6059   39.4769 H           1 XNC       0.0557
     73 H29        37.5966   10.2558   40.9589 H           1 XNC       0.0599
     74 H30        39.8965    9.6735   40.4330 H           1 XNC       0.0559
     75 H31        40.4008    8.4235   38.4114 H           1 XNC       0.0599
     76 H32        38.6166    7.7367   36.9299 H           1 XNC       0.0557
@<TRIPOS>BOND
     1     1     2   2
     2     2     3   1
     3     2    10  am
     4     3     4  ar
     5     3     9  ar
     6     4     5  ar
     7     5     6  ar
     8     6     7  ar
     9     7     8   1
    10     7     9  ar
    11    10    11   1
    12    10    14   1
    13    11    12  ar
    14    11    26  ar
    15    12    13  ar
    16    13    29  ar
    17    14    15   1
    18    14    30   1
    19    15    16   1
    20    15    24   2
    21    16    17   2
    22    16    18   2
    23    16    19   1
    24    19    20   1
    25    20    21   1
    26    20    22   1
    27    20    23   1
    28    23    24   1
    29    24    25   1
    30    25    26   1
    31    26    27  ar
    32    27    28   1
    33    27    29  ar
    34    30    31  ar
    35    30    36  ar
    36    31    32   1
    37    31    33  ar
    38    33    34  ar
    39    34    35  ar
    40    34    37   1
    41    35    36  ar
    42    37    38   1
    43    38    39   1
    44    39    40  ar
    45    39    44  ar
    46    40    41  ar
    47    41    42  ar
    48    42    43  ar
    49    43    44  ar
    50     4    45   1
    51     5    46   1
    52     6    47   1
    53     8    48   1
    54     8    49   1
    55     8    50   1
    56    12    51   1
    57    13    52   1
    58    14    53   1
    59    19    54   1
    60    19    55   1
    61    21    56   1
    62    21    57   1
    63    21    58   1
    64    22    59   1
    65    22    60   1
    66    22    61   1
    67    23    62   1
    68    23    63   1
    69    25    64   1
    70    28    65   1
    71    29    66   1
    72    33    67   1
    73    35    68   1
    74    36    69   1
    75    38    70   1
    76    38    71   1
    77    40    72   1
    78    41    73   1
    79    42    74   1
    80    43    75   1
    81    44    76   1
@<TRIPOS>SUBSTRUCTURE
     1  XNC      2

