@<TRIPOS>MOLECULE
3gnw_ligand_092
    76    81
SMALL
GAST_HUCK
****
This file was generated by PARSER (from files_GN.cpp)

@<TRIPOS>ATOM
      1 O35        31.1567    7.2606   39.4528 O.2         1 XNC      -0.3687
      2 C16        30.4906    6.2328   39.3591 C.2         1 XNC       0.2510
      3 C17        31.0061    5.3455   38.4368 C.ar        1 XNC       0.1194
      4 C43        31.7579    4.2135   38.8241 C.ar        1 XNC      -0.0209
      5 C42        32.2552    3.3505   37.8298 C.ar        1 XNC      -0.0435
      6 C41        32.0064    3.6188   36.4717 C.ar        1 XNC      -0.0287
      7 C40        31.2672    4.7685   36.1205 C.ar        1 XNC       0.0301
      8 C44        30.8955    5.0765   34.7278 C.3         1 XNC      -0.0144
      9 N39        30.8051    5.5805   37.1116 N.ar        1 XNC      -0.2781
     10 N7         29.3243    6.0753   40.0305 N.am        1 XNC      -0.2078
     11 C4         28.8997    7.0857   40.8777 C.ar        1 XNC       0.0880
     12 C3         29.6895    7.4412   41.9987 C.ar        1 XNC      -0.0607
     13 C2         29.3006    8.4822   42.8543 C.ar        1 XNC      -0.0955
     14 C8         28.3804    4.9832   39.7886 C.3         1 XNC       0.1162
     15 C9         27.4655    5.3601   38.6908 C.2         1 XNC       0.0894
     16 S12        27.1827    4.1671   37.4746 S.o2        1 XNC      -0.0239
     17 O32        26.3793    2.9486   38.1068 O.2         1 XNC      -0.1768
     18 O33        28.5199    3.5440   36.8854 O.2         1 XNC      -0.1768
     19 C13        26.2044    4.8271   36.1106 C.3         1 XNC       0.0705
     20 C14        26.2111    6.3880   36.0985 C.3         1 XNC      -0.0050
     21 C37        27.5801    6.9603   35.6032 C.3         1 XNC      -0.0565
     22 C38        25.1030    6.8796   35.1092 C.3         1 XNC      -0.0565
     23 C15        25.8855    6.9001   37.5439 C.3         1 XNC       0.0036
     24 C10        26.8321    6.5648   38.6222 C.2         1 XNC       0.0422
     25 N11        26.8548    7.5062   39.5913 N.pl3       1 XNC      -0.2908
     26 C5         27.6794    7.7731   40.6398 C.ar        1 XNC       0.1100
     27 C6         27.2990    8.8272   41.5122 C.ar        1 XNC       0.0976
     28 O36        26.1510    9.5327   41.3465 O.3         1 XNC      -0.3423
     29 C1         28.1074    9.1772   42.6093 C.ar        1 XNC      -0.0580
     30 C18        27.7392    4.4215   41.0414 C.ar        1 XNC       0.0130
     31 C23        28.5018    3.6329   41.9476 C.ar        1 XNC       0.1283
     32 F34        29.7562    3.3535   41.7071 F           1 XNC      -0.1917
     33 C22        27.9367    3.1270   43.1330 C.ar        1 XNC      -0.0061
     34 C21        26.5870    3.3808   43.4492 C.ar        1 XNC       0.0849
     35 C20        25.8255    4.1748   42.5765 C.ar        1 XNC      -0.0435
     36 C19        26.3859    4.6733   41.3884 C.ar        1 XNC      -0.0671
     37 O24        25.9878    2.9360   44.6055 O.3         1 XNC      -0.3110
     38 C25        25.8649    1.4982   44.7240 C.3         1 XNC       0.1027
     39 C26        24.8165    1.0499   45.6752 C.ar        1 XNC      -0.0131
     40 C31        24.0446    1.9482   46.4508 C.ar        1 XNC      -0.0578
     41 C30        23.0299    1.4762   47.3071 C.ar        1 XNC      -0.0685
     42 C29        22.7690    0.0979   47.3971 C.ar        1 XNC      -0.0687
     43 C28        23.5333   -0.8089   46.6435 C.ar        1 XNC      -0.0685
     44 C27        24.5533   -0.3350   45.7976 C.ar        1 XNC      -0.0578
     45 H1         31.9331    4.0071   39.8092 H           1 XNC       0.0705
     46 H2         32.7831    2.5164   38.0957 H           1 XNC       0.0729
     47 H3         32.3504    2.9743   35.7553 H           1 XNC       0.0684
     48 H4         31.2547    6.0689   34.4513 H           1 XNC       0.0421
     49 H5         29.8096    5.0518   34.6300 H           1 XNC       0.0421
     50 H6         31.3108    4.3551   34.0270 H           1 XNC       0.0421
     51 H7         30.5575    6.9381   42.1942 H           1 XNC       0.0382
     52 H8         29.8864    8.7334   43.6544 H           1 XNC       0.0451
     53 H9         28.9530    4.1264   39.4259 H           1 XNC       0.0812
     54 H10        25.1830    4.4589   36.2421 H           1 XNC       0.0503
     55 H11        26.5783    4.4233   35.1665 H           1 XNC       0.0503
     56 H12        27.5604    8.0512   35.6018 H           1 XNC       0.0237
     57 H13        27.7960    6.6235   34.5868 H           1 XNC       0.0237
     58 H14        28.4001    6.6453   36.2452 H           1 XNC       0.0237
     59 H15        24.1170    6.5177   35.4105 H           1 XNC       0.0237
     60 H16        25.2998    6.5229   34.0950 H           1 XNC       0.0237
     61 H17        25.0665    7.9700   35.0860 H           1 XNC       0.0237
     62 H18        24.9109    6.5119   37.8458 H           1 XNC       0.0444
     63 H19        25.7751    7.9860   37.4753 H           1 XNC       0.0444
     64 H20        26.1288    8.1389   39.5123 H           1 XNC       0.2009
     65 H21        26.1879    9.8895   40.4361 H           1 XNC       0.2432
     66 H22        27.8282    9.9344   43.2365 H           1 XNC       0.0389
     67 H23        28.5078    2.5787   43.7787 H           1 XNC       0.0510
     68 H24        24.8531    4.3922   42.8087 H           1 XNC       0.0491
     69 H25        25.7852    5.2296   40.7809 H           1 XNC       0.0520
     70 H26        26.8276    1.1041   45.0617 H           1 XNC       0.0776
     71 H27        25.6387    1.0511   43.7488 H           1 XNC       0.0776
     72 H28        24.2060    2.9550   46.4041 H           1 XNC       0.0557
     73 H29        22.4750    2.1372   47.8582 H           1 XNC       0.0599
     74 H30        22.0208   -0.2437   48.0091 H           1 XNC       0.0559
     75 H31        23.3425   -1.8124   46.7082 H           1 XNC       0.0599
     76 H32        25.0953   -1.0136   45.2586 H           1 XNC       0.0557
@<TRIPOS>BOND
     1     1     2   2
     2     2     3   1
     3     2    10  am
     4     3     4  ar
     5     3     9  ar
     6     4     5  ar
     7     5     6  ar
     8     6     7  ar
     9     7     8   1
    10     7     9  ar
    11    10    11   1
    12    10    14   1
    13    11    12  ar
    14    11    26  ar
    15    12    13  ar
    16    13    29  ar
    17    14    15   1
    18    14    30   1
    19    15    16   1
    20    15    24   2
    21    16    17   2
    22    16    18   2
    23    16    19   1
    24    19    20   1
    25    20    21   1
    26    20    22   1
    27    20    23   1
    28    23    24   1
    29    24    25   1
    30    25    26   1
    31    26    27  ar
    32    27    28   1
    33    27    29  ar
    34    30    31  ar
    35    30    36  ar
    36    31    32   1
    37    31    33  ar
    38    33    34  ar
    39    34    35  ar
    40    34    37   1
    41    35    36  ar
    42    37    38   1
    43    38    39   1
    44    39    40  ar
    45    39    44  ar
    46    40    41  ar
    47    41    42  ar
    48    42    43  ar
    49    43    44  ar
    50     4    45   1
    51     5    46   1
    52     6    47   1
    53     8    48   1
    54     8    49   1
    55     8    50   1
    56    12    51   1
    57    13    52   1
    58    14    53   1
    59    19    54   1
    60    19    55   1
    61    21    56   1
    62    21    57   1
    63    21    58   1
    64    22    59   1
    65    22    60   1
    66    22    61   1
    67    23    62   1
    68    23    63   1
    69    25    64   1
    70    28    65   1
    71    29    66   1
    72    33    67   1
    73    35    68   1
    74    36    69   1
    75    38    70   1
    76    38    71   1
    77    40    72   1
    78    41    73   1
    79    42    74   1
    80    43    75   1
    81    44    76   1
@<TRIPOS>SUBSTRUCTURE
     1  XNC      2

