@<TRIPOS>MOLECULE
3gnw_ligand_074
    76    81
SMALL
GAST_HUCK
****
This file was generated by PARSER (from files_GN.cpp)

@<TRIPOS>ATOM
      1 O35        29.2857    4.1355   33.2724 O.2         1 XNC      -0.3687
      2 C16        29.3853    3.8093   34.4524 C.2         1 XNC       0.2510
      3 C17        30.2705    2.7684   34.6744 C.ar        1 XNC       0.1194
      4 C43        30.0515    1.4532   34.2072 C.ar        1 XNC      -0.0209
      5 C42        31.0318    0.4697   34.4403 C.ar        1 XNC      -0.0435
      6 C41        32.2174    0.7997   35.1224 C.ar        1 XNC      -0.0287
      7 C40        32.4012    2.1229   35.5768 C.ar        1 XNC       0.0301
      8 C44        33.6315    2.5372   36.2780 C.3         1 XNC      -0.0144
      9 N39        31.4336    3.0422   35.3270 N.ar        1 XNC      -0.2781
     10 N7         28.7165    4.4800   35.4253 N.am        1 XNC      -0.2078
     11 C4         28.1348    5.7115   35.1459 C.ar        1 XNC       0.0880
     12 C3         28.9318    6.7392   34.5738 C.ar        1 XNC      -0.0607
     13 C2         28.4071    8.0150   34.3234 C.ar        1 XNC      -0.0955
     14 C8         28.4595    3.8909   36.7511 C.3         1 XNC       0.1162
     15 C9         27.1728    3.1769   36.6475 C.2         1 XNC       0.0894
     16 S12        27.1923    1.4816   36.9773 S.o2        1 XNC      -0.0239
     17 O32        27.7300    1.1930   38.4476 O.2         1 XNC      -0.1768
     18 O33        28.1458    0.7211   35.9553 O.2         1 XNC      -0.1768
     19 C13        25.5409    0.7747   36.8083 C.3         1 XNC       0.0705
     20 C14        24.6520    1.6407   35.8616 C.3         1 XNC      -0.0050
     21 C37        25.1154    1.5329   34.3697 C.3         1 XNC      -0.0565
     22 C38        23.1810    1.1238   35.9557 C.3         1 XNC      -0.0565
     23 C15        24.7072    3.1273   36.3639 C.3         1 XNC       0.0036
     24 C10        26.0151    3.7998   36.3092 C.2         1 XNC       0.0422
     25 N11        25.9077    5.1060   36.0073 N.pl3       1 XNC      -0.2908
     26 C5         26.7814    6.0051   35.4835 C.ar        1 XNC       0.1100
     27 C6         26.2681    7.3064   35.2460 C.ar        1 XNC       0.0976
     28 O36        24.9890    7.6487   35.5639 O.3         1 XNC      -0.3423
     29 C1         27.0788    8.3030   34.6713 C.ar        1 XNC      -0.0580
     30 C18        28.6146    4.8137   37.9385 C.ar        1 XNC       0.0130
     31 C23        29.5908    5.8498   37.9267 C.ar        1 XNC       0.1283
     32 F34        30.4084    6.0082   36.9151 F           1 XNC      -0.1917
     33 C22        29.6992    6.7501   39.0042 C.ar        1 XNC      -0.0061
     34 C21        28.9178    6.5778   40.1666 C.ar        1 XNC       0.0849
     35 C20        28.0097    5.5051   40.2289 C.ar        1 XNC      -0.0435
     36 C19        27.8607    4.6422   39.1326 C.ar        1 XNC      -0.0671
     37 O24        28.9254    7.4777   41.2012 O.3         1 XNC      -0.3110
     38 C25        30.0899    7.4896   42.0514 C.3         1 XNC       0.1027
     39 C26        31.2288    8.1732   41.3953 C.ar        1 XNC      -0.0131
     40 C31        31.0351    9.4405   40.7917 C.ar        1 XNC      -0.0578
     41 C30        32.0729   10.0498   40.0683 C.ar        1 XNC      -0.0685
     42 C29        33.3203    9.4129   39.9451 C.ar        1 XNC      -0.0687
     43 C28        33.5300    8.1618   40.5553 C.ar        1 XNC      -0.0685
     44 C27        32.4943    7.5480   41.2777 C.ar        1 XNC      -0.0578
     45 H1         29.1948    1.2091   33.7029 H           1 XNC       0.0705
     46 H2         30.8815   -0.4861   34.1111 H           1 XNC       0.0729
     47 H3         32.9323    0.0859   35.2820 H           1 XNC       0.0684
     48 H4         33.6119    3.6059   36.5105 H           1 XNC       0.0421
     49 H5         34.4992    2.3414   35.6442 H           1 XNC       0.0421
     50 H6         33.7310    1.9774   37.2108 H           1 XNC       0.0421
     51 H7         29.9094    6.5603   34.3379 H           1 XNC       0.0382
     52 H8         28.9991    8.7435   33.9173 H           1 XNC       0.0451
     53 H9         29.2305    3.1545   36.9799 H           1 XNC       0.0812
     54 H10        25.0981    0.7373   37.8066 H           1 XNC       0.0503
     55 H11        25.6244   -0.2490   36.4415 H           1 XNC       0.0503
     56 H12        24.4618    2.1179   33.7182 H           1 XNC       0.0237
     57 H13        25.0902    0.4965   34.0341 H           1 XNC       0.0237
     58 H14        26.1330    1.8987   34.2346 H           1 XNC       0.0237
     59 H15        22.8033    1.2112   36.9766 H           1 XNC       0.0237
     60 H16        23.1137    0.0754   35.6615 H           1 XNC       0.0237
     61 H17        22.5254    1.7017   35.3000 H           1 XNC       0.0237
     62 H18        24.3721    3.1684   37.4061 H           1 XNC       0.0444
     63 H19        23.9698    3.6952   35.7828 H           1 XNC       0.0444
     64 H20        25.0094    5.4576   36.1233 H           1 XNC       0.2009
     65 H21        24.4386    7.2884   34.8344 H           1 XNC       0.2432
     66 H22        26.7059    9.2432   34.5121 H           1 XNC       0.0389
     67 H23        30.3531    7.5368   38.9377 H           1 XNC       0.0510
     68 H24        27.4458    5.3629   41.0715 H           1 XNC       0.0491
     69 H25        27.1962    3.8693   39.2262 H           1 XNC       0.0520
     70 H26        30.3457    6.4742   42.3714 H           1 XNC       0.0776
     71 H27        29.8293    8.0498   42.9518 H           1 XNC       0.0776
     72 H28        30.1306    9.9130   40.8652 H           1 XNC       0.0557
     73 H29        31.9168   10.9513   39.6123 H           1 XNC       0.0599
     74 H30        34.0702    9.8522   39.4109 H           1 XNC       0.0559
     75 H31        34.4330    7.6948   40.4622 H           1 XNC       0.0599
     76 H32        32.6552    6.6237   41.6900 H           1 XNC       0.0557
@<TRIPOS>BOND
     1     1     2   2
     2     2     3   1
     3     2    10  am
     4     3     4  ar
     5     3     9  ar
     6     4     5  ar
     7     5     6  ar
     8     6     7  ar
     9     7     8   1
    10     7     9  ar
    11    10    11   1
    12    10    14   1
    13    11    12  ar
    14    11    26  ar
    15    12    13  ar
    16    13    29  ar
    17    14    15   1
    18    14    30   1
    19    15    16   1
    20    15    24   2
    21    16    17   2
    22    16    18   2
    23    16    19   1
    24    19    20   1
    25    20    21   1
    26    20    22   1
    27    20    23   1
    28    23    24   1
    29    24    25   1
    30    25    26   1
    31    26    27  ar
    32    27    28   1
    33    27    29  ar
    34    30    31  ar
    35    30    36  ar
    36    31    32   1
    37    31    33  ar
    38    33    34  ar
    39    34    35  ar
    40    34    37   1
    41    35    36  ar
    42    37    38   1
    43    38    39   1
    44    39    40  ar
    45    39    44  ar
    46    40    41  ar
    47    41    42  ar
    48    42    43  ar
    49    43    44  ar
    50     4    45   1
    51     5    46   1
    52     6    47   1
    53     8    48   1
    54     8    49   1
    55     8    50   1
    56    12    51   1
    57    13    52   1
    58    14    53   1
    59    19    54   1
    60    19    55   1
    61    21    56   1
    62    21    57   1
    63    21    58   1
    64    22    59   1
    65    22    60   1
    66    22    61   1
    67    23    62   1
    68    23    63   1
    69    25    64   1
    70    28    65   1
    71    29    66   1
    72    33    67   1
    73    35    68   1
    74    36    69   1
    75    38    70   1
    76    38    71   1
    77    40    72   1
    78    41    73   1
    79    42    74   1
    80    43    75   1
    81    44    76   1
@<TRIPOS>SUBSTRUCTURE
     1  XNC      2

