@<TRIPOS>MOLECULE
3gnw_ligand_053
    76    81
SMALL
GAST_HUCK
****
This file was generated by PARSER (from files_GN.cpp)

@<TRIPOS>ATOM
      1 O35        27.7271    1.4297   36.5457 O.2         1 XNC      -0.3687
      2 C16        28.2950    2.2118   35.7906 C.2         1 XNC       0.2510
      3 C17        29.2368    1.5991   34.9920 C.ar        1 XNC       0.1194
      4 C43        28.9623    1.3280   33.6332 C.ar        1 XNC      -0.0209
      5 C42        29.9441    0.6895   32.8566 C.ar        1 XNC      -0.0435
      6 C41        31.1822    0.3447   33.4272 C.ar        1 XNC      -0.0287
      7 C40        31.4204    0.6355   34.7890 C.ar        1 XNC       0.0301
      8 C44        32.7206    0.3427   35.4184 C.3         1 XNC      -0.0144
      9 N39        30.4402    1.2397   35.5153 N.ar        1 XNC      -0.2781
     10 N7         27.9652    3.5238   35.7593 N.am        1 XNC      -0.2078
     11 C4         26.8184    3.9581   36.4047 C.ar        1 XNC       0.0880
     12 C3         25.5726    3.3834   36.0519 C.ar        1 XNC      -0.0607
     13 C2         24.3794    3.8248   36.6423 C.ar        1 XNC      -0.0955
     14 C8         28.8366    4.5595   35.1914 C.3         1 XNC       0.1162
     15 C9         29.7287    5.0364   36.2702 C.2         1 XNC       0.0894
     16 S12        31.4146    5.0576   35.9182 S.o2        1 XNC      -0.0239
     17 O32        31.6696    5.9647   34.6335 O.2         1 XNC      -0.1768
     18 O33        31.9445    3.6000   35.5531 O.2         1 XNC      -0.1768
     19 C13        32.3846    5.7342   37.2726 C.3         1 XNC       0.0705
     20 C14        31.6099    5.6702   38.6259 C.3         1 XNC      -0.0050
     21 C37        31.5515    4.2121   39.1860 C.3         1 XNC      -0.0565
     22 C38        32.3641    6.5666   39.6657 C.3         1 XNC      -0.0565
     23 C15        30.1621    6.2322   38.4051 C.3         1 XNC       0.0036
     24 C10        29.2802    5.5170   37.4582 C.2         1 XNC       0.0422
     25 N11        27.9803    5.6339   37.7835 N.pl3       1 XNC      -0.2908
     26 C5         26.8468    5.0253   37.3445 C.ar        1 XNC       0.1100
     27 C6         25.6304    5.4853   37.9047 C.ar        1 XNC       0.0976
     28 O36        25.5890    6.5276   38.7732 O.3         1 XNC      -0.3423
     29 C1         24.4085    4.8818   37.5616 C.ar        1 XNC      -0.0580
     30 C18        28.1040    5.6108   34.3842 C.ar        1 XNC       0.0130
     31 C23        28.1099    7.0126   34.6503 C.ar        1 XNC       0.1283
     32 F34        28.8033    7.5940   35.5884 F           1 XNC      -0.1917
     33 C22        27.3619    7.8951   33.8577 C.ar        1 XNC      -0.0061
     34 C21        26.7093    7.4561   32.6949 C.ar        1 XNC       0.0849
     35 C20        26.6766    6.0766   32.4202 C.ar        1 XNC      -0.0435
     36 C19        27.3459    5.1693   33.2664 C.ar        1 XNC      -0.0671
     37 O24        26.0954    8.3727   31.8731 O.3         1 XNC      -0.3110
     38 C25        26.9713    9.2362   31.1109 C.3         1 XNC       0.1027
     39 C26        27.7847   10.1508   31.9615 C.ar        1 XNC      -0.0131
     40 C31        29.1890   10.0010   32.0517 C.ar        1 XNC      -0.0578
     41 C30        29.9266   10.7362   32.9966 C.ar        1 XNC      -0.0685
     42 C29        29.2726   11.6437   33.8473 C.ar        1 XNC      -0.0687
     43 C28        27.8870   11.8507   33.7237 C.ar        1 XNC      -0.0685
     44 C27        27.1461   11.1096   32.7839 C.ar        1 XNC      -0.0578
     45 H1         28.0517    1.5584   33.2190 H           1 XNC       0.0705
     46 H2         29.7567    0.4762   31.8746 H           1 XNC       0.0729
     47 H3         31.8967   -0.1111   32.8544 H           1 XNC       0.0684
     48 H4         32.7457    0.6827   36.4550 H           1 XNC       0.0421
     49 H5         33.5273    0.8419   34.8768 H           1 XNC       0.0421
     50 H6         32.8967   -0.7312   35.4055 H           1 XNC       0.0421
     51 H7         25.5266    2.6375   35.3560 H           1 XNC       0.0382
     52 H8         23.4913    3.3885   36.3879 H           1 XNC       0.0451
     53 H9         29.4717    4.1035   34.4239 H           1 XNC       0.0812
     54 H10        32.5912    6.7757   37.0128 H           1 XNC       0.0503
     55 H11        33.3412    5.2094   37.3362 H           1 XNC       0.0503
     56 H12        30.9933    4.1870   40.1254 H           1 XNC       0.0237
     57 H13        32.5574    3.8313   39.3753 H           1 XNC       0.0237
     58 H14        31.0603    3.5354   38.4846 H           1 XNC       0.0237
     59 H15        32.4116    7.6051   39.3259 H           1 XNC       0.0237
     60 H16        33.3876    6.2110   39.8119 H           1 XNC       0.0237
     61 H17        31.8555    6.5515   40.6329 H           1 XNC       0.0237
     62 H18        30.2383    7.2633   38.0452 H           1 XNC       0.0444
     63 H19        29.6847    6.2876   39.3911 H           1 XNC       0.0444
     64 H20        27.8221    6.2861   38.4813 H           1 XNC       0.2009
     65 H21        25.7556    7.3258   38.2285 H           1 XNC       0.2432
     66 H22        23.5352    5.2154   37.9752 H           1 XNC       0.0389
     67 H23        27.3432    8.8811   34.1121 H           1 XNC       0.0510
     68 H24        26.1716    5.7338   31.5986 H           1 XNC       0.0491
     69 H25        27.2958    4.1717   33.0359 H           1 XNC       0.0520
     70 H26        26.3373    9.8427   30.4604 H           1 XNC       0.0776
     71 H27        27.5986    8.6261   30.4545 H           1 XNC       0.0776
     72 H28        29.6761    9.3149   31.4715 H           1 XNC       0.0557
     73 H29        30.9374   10.6065   33.0679 H           1 XNC       0.0599
     74 H30        29.8088   12.1668   34.5410 H           1 XNC       0.0559
     75 H31        27.4165   12.5293   34.3255 H           1 XNC       0.0599
     76 H32        26.1309   11.2330   32.7437 H           1 XNC       0.0557
@<TRIPOS>BOND
     1     1     2   2
     2     2     3   1
     3     2    10  am
     4     3     4  ar
     5     3     9  ar
     6     4     5  ar
     7     5     6  ar
     8     6     7  ar
     9     7     8   1
    10     7     9  ar
    11    10    11   1
    12    10    14   1
    13    11    12  ar
    14    11    26  ar
    15    12    13  ar
    16    13    29  ar
    17    14    15   1
    18    14    30   1
    19    15    16   1
    20    15    24   2
    21    16    17   2
    22    16    18   2
    23    16    19   1
    24    19    20   1
    25    20    21   1
    26    20    22   1
    27    20    23   1
    28    23    24   1
    29    24    25   1
    30    25    26   1
    31    26    27  ar
    32    27    28   1
    33    27    29  ar
    34    30    31  ar
    35    30    36  ar
    36    31    32   1
    37    31    33  ar
    38    33    34  ar
    39    34    35  ar
    40    34    37   1
    41    35    36  ar
    42    37    38   1
    43    38    39   1
    44    39    40  ar
    45    39    44  ar
    46    40    41  ar
    47    41    42  ar
    48    42    43  ar
    49    43    44  ar
    50     4    45   1
    51     5    46   1
    52     6    47   1
    53     8    48   1
    54     8    49   1
    55     8    50   1
    56    12    51   1
    57    13    52   1
    58    14    53   1
    59    19    54   1
    60    19    55   1
    61    21    56   1
    62    21    57   1
    63    21    58   1
    64    22    59   1
    65    22    60   1
    66    22    61   1
    67    23    62   1
    68    23    63   1
    69    25    64   1
    70    28    65   1
    71    29    66   1
    72    33    67   1
    73    35    68   1
    74    36    69   1
    75    38    70   1
    76    38    71   1
    77    40    72   1
    78    41    73   1
    79    42    74   1
    80    43    75   1
    81    44    76   1
@<TRIPOS>SUBSTRUCTURE
     1  XNC      2

