@<TRIPOS>MOLECULE
3gnw_ligand_019
    76    81
SMALL
GAST_HUCK
****
This file was generated by PARSER (from files_GN.cpp)

@<TRIPOS>ATOM
      1 O35        32.1849    0.3148   38.0820 O.2         1 XNC      -0.3687
      2 C16        32.0126    1.5099   38.2960 C.2         1 XNC       0.2510
      3 C17        32.9382    2.0699   39.1617 C.ar        1 XNC       0.1194
      4 C43        33.2095    1.5357   40.4415 C.ar        1 XNC      -0.0209
      5 C42        34.1231    2.1960   41.2812 C.ar        1 XNC      -0.0435
      6 C41        34.8099    3.3332   40.8202 C.ar        1 XNC      -0.0287
      7 C40        34.5746    3.7960   39.5076 C.ar        1 XNC       0.0301
      8 C44        35.3166    4.9431   38.9536 C.3         1 XNC      -0.0144
      9 N39        33.6464    3.1548   38.7477 N.ar        1 XNC      -0.2781
     10 N7         31.0111    2.1868   37.6858 N.am        1 XNC      -0.2078
     11 C4         30.3471    1.6150   36.6110 C.ar        1 XNC       0.0880
     12 C3         31.0931    1.2526   35.4623 C.ar        1 XNC      -0.0607
     13 C2         30.4649    0.7165   34.3296 C.ar        1 XNC      -0.0955
     14 C8         30.4501    3.4347   38.2205 C.3         1 XNC       0.1162
     15 C9         29.4147    3.0303   39.1965 C.2         1 XNC       0.0894
     16 S12        29.5822    3.6143   40.8128 S.o2        1 XNC      -0.0239
     17 O32        29.6914    5.2011   40.8477 O.2         1 XNC      -0.1768
     18 O33        30.9189    3.0454   41.4582 O.2         1 XNC      -0.1768
     19 C13        28.2133    3.0798   41.8559 C.3         1 XNC       0.0705
     20 C14        27.5307    1.8008   41.2805 C.3         1 XNC      -0.0050
     21 C37        28.4312    0.5328   41.4530 C.3         1 XNC      -0.0565
     22 C38        26.1972    1.5498   42.0602 C.3         1 XNC      -0.0565
     23 C15        27.1991    2.0607   39.7697 C.3         1 XNC       0.0036
     24 C10        28.3373    2.2773   38.8591 C.2         1 XNC       0.0422
     25 N11        28.1158    1.7691   37.6323 N.pl3       1 XNC      -0.2908
     26 C5         28.9333    1.4615   36.5926 C.ar        1 XNC       0.1100
     27 C6         28.3074    0.9266   35.4394 C.ar        1 XNC       0.0976
     28 O36        26.9624    0.7393   35.3869 O.3         1 XNC      -0.3423
     29 C1         29.0725    0.5534   34.3182 C.ar        1 XNC      -0.0580
     30 C18        30.0563    4.4637   37.1793 C.ar        1 XNC       0.0130
     31 C23        28.8975    5.2870   37.2686 C.ar        1 XNC       0.1283
     32 F34        28.0921    5.2875   38.2931 F           1 XNC      -0.1917
     33 C22        28.5699    6.1961   36.2475 C.ar        1 XNC      -0.0061
     34 C21        29.3730    6.3104   35.1008 C.ar        1 XNC       0.0849
     35 C20        30.5624    5.5634   35.0212 C.ar        1 XNC      -0.0435
     36 C19        30.9066    4.6733   36.0579 C.ar        1 XNC      -0.0671
     37 O24        29.0246    7.2298   34.1442 O.3         1 XNC      -0.3110
     38 C25        28.3397    6.7155   32.9821 C.3         1 XNC       0.1027
     39 C26        26.9990    6.1169   33.2425 C.ar        1 XNC      -0.0131
     40 C31        26.0241    6.8367   33.9729 C.ar        1 XNC      -0.0578
     41 C30        24.7616    6.2725   34.2356 C.ar        1 XNC      -0.0685
     42 C29        24.4460    4.9925   33.7453 C.ar        1 XNC      -0.0687
     43 C28        25.3950    4.2765   32.9947 C.ar        1 XNC      -0.0685
     44 C27        26.6648    4.8325   32.7505 C.ar        1 XNC      -0.0578
     45 H1         32.6962    0.7249   40.7916 H           1 XNC       0.0705
     46 H2         34.2967    1.8418   42.2237 H           1 XNC       0.0729
     47 H3         35.4863    3.8013   41.4278 H           1 XNC       0.0684
     48 H4         35.0438    5.1203   37.9115 H           1 XNC       0.0421
     49 H5         36.3885    4.7437   38.9996 H           1 XNC       0.0421
     50 H6         35.0963    5.8432   39.5291 H           1 XNC       0.0421
     51 H7         32.1062    1.3924   35.4441 H           1 XNC       0.0382
     52 H8         31.0219    0.4435   33.5168 H           1 XNC       0.0451
     53 H9         31.2274    3.9782   38.7575 H           1 XNC       0.0812
     54 H10        27.4968    3.9026   41.8908 H           1 XNC       0.0503
     55 H11        28.5763    2.9094   42.8716 H           1 XNC       0.0503
     56 H12        27.9540   -0.3426   41.0060 H           1 XNC       0.0237
     57 H13        28.6006    0.3211   42.5108 H           1 XNC       0.0237
     58 H14        29.4044    0.6608   40.9775 H           1 XNC       0.0237
     59 H15        25.5051    2.3854   41.9297 H           1 XNC       0.0237
     60 H16        26.3885    1.4317   43.1298 H           1 XNC       0.0237
     61 H17        25.7016    0.6428   41.7042 H           1 XNC       0.0237
     62 H18        26.5611    2.9454   39.6917 H           1 XNC       0.0444
     63 H19        26.5919    1.2165   39.4217 H           1 XNC       0.0444
     64 H20        27.1900    1.5218   37.4797 H           1 XNC       0.2009
     65 H21        26.6213    1.4959   34.8667 H           1 XNC       0.2432
     66 H22        28.6185    0.1547   33.4969 H           1 XNC       0.0389
     67 H23        27.7382    6.7833   36.3420 H           1 XNC       0.0510
     68 H24        31.1813    5.6704   34.2125 H           1 XNC       0.0491
     69 H25        31.7868    4.1572   35.9732 H           1 XNC       0.0520
     70 H26        28.9989    6.0159   32.4600 H           1 XNC       0.0776
     71 H27        28.1903    7.5655   32.3124 H           1 XNC       0.0776
     72 H28        26.2345    7.7714   34.3314 H           1 XNC       0.0557
     73 H29        24.0697    6.7977   34.7741 H           1 XNC       0.0599
     74 H30        23.5248    4.5874   33.9262 H           1 XNC       0.0559
     75 H31        25.1607    3.3522   32.6257 H           1 XNC       0.0599
     76 H32        27.3396    4.2979   32.1989 H           1 XNC       0.0557
@<TRIPOS>BOND
     1     1     2   2
     2     2     3   1
     3     2    10  am
     4     3     4  ar
     5     3     9  ar
     6     4     5  ar
     7     5     6  ar
     8     6     7  ar
     9     7     8   1
    10     7     9  ar
    11    10    11   1
    12    10    14   1
    13    11    12  ar
    14    11    26  ar
    15    12    13  ar
    16    13    29  ar
    17    14    15   1
    18    14    30   1
    19    15    16   1
    20    15    24   2
    21    16    17   2
    22    16    18   2
    23    16    19   1
    24    19    20   1
    25    20    21   1
    26    20    22   1
    27    20    23   1
    28    23    24   1
    29    24    25   1
    30    25    26   1
    31    26    27  ar
    32    27    28   1
    33    27    29  ar
    34    30    31  ar
    35    30    36  ar
    36    31    32   1
    37    31    33  ar
    38    33    34  ar
    39    34    35  ar
    40    34    37   1
    41    35    36  ar
    42    37    38   1
    43    38    39   1
    44    39    40  ar
    45    39    44  ar
    46    40    41  ar
    47    41    42  ar
    48    42    43  ar
    49    43    44  ar
    50     4    45   1
    51     5    46   1
    52     6    47   1
    53     8    48   1
    54     8    49   1
    55     8    50   1
    56    12    51   1
    57    13    52   1
    58    14    53   1
    59    19    54   1
    60    19    55   1
    61    21    56   1
    62    21    57   1
    63    21    58   1
    64    22    59   1
    65    22    60   1
    66    22    61   1
    67    23    62   1
    68    23    63   1
    69    25    64   1
    70    28    65   1
    71    29    66   1
    72    33    67   1
    73    35    68   1
    74    36    69   1
    75    38    70   1
    76    38    71   1
    77    40    72   1
    78    41    73   1
    79    42    74   1
    80    43    75   1
    81    44    76   1
@<TRIPOS>SUBSTRUCTURE
     1  XNC      2

