@<TRIPOS>MOLECULE
3gnw_ligand_066
    76    81
SMALL
GAST_HUCK
****
This file was generated by PARSER (from files_GN.cpp)

@<TRIPOS>ATOM
      1 O35        30.1968    0.8291   38.3048 O.2         1 XNC      -0.3687
      2 C16        30.7386    1.7654   38.8714 C.2         1 XNC       0.2510
      3 C17        32.0953    1.8700   38.6066 C.ar        1 XNC       0.1194
      4 C43        32.9990    0.8067   38.8516 C.ar        1 XNC      -0.0209
      5 C42        34.3575    0.9736   38.5353 C.ar        1 XNC      -0.0435
      6 C41        34.8029    2.1730   37.9561 C.ar        1 XNC      -0.0287
      7 C40        33.8713    3.2072   37.7023 C.ar        1 XNC       0.0301
      8 C44        34.2784    4.4600   37.0399 C.3         1 XNC      -0.0144
      9 N39        32.5686    3.0134   38.0451 N.ar        1 XNC      -0.2781
     10 N7         30.0221    2.6703   39.5866 N.am        1 XNC      -0.2078
     11 C4         30.6397    3.5889   40.4239 C.ar        1 XNC       0.0880
     12 C3         31.5703    3.1307   41.3935 C.ar        1 XNC      -0.0607
     13 C2         32.2164    4.0222   42.2613 C.ar        1 XNC      -0.0955
     14 C8         28.5592    2.7083   39.5264 C.3         1 XNC       0.1162
     15 C9         28.1807    3.7328   38.5326 C.2         1 XNC       0.0894
     16 S12        27.1459    3.2107   37.2601 S.o2        1 XNC      -0.0239
     17 O32        25.7840    2.6909   37.8980 O.2         1 XNC      -0.1768
     18 O33        27.7992    2.0013   36.4569 O.2         1 XNC      -0.1768
     19 C13        26.7786    4.5545   36.1225 C.3         1 XNC       0.0705
     20 C14        26.8316    5.9318   36.8533 C.3         1 XNC      -0.0050
     21 C37        26.7287    7.0662   35.7775 C.3         1 XNC      -0.0565
     22 C38        25.6302    6.1010   37.8404 C.3         1 XNC      -0.0565
     23 C15        28.2054    6.0512   37.6040 C.3         1 XNC       0.0036
     24 C10        28.5805    5.0321   38.6012 C.2         1 XNC       0.0422
     25 N11        29.3988    5.5281   39.5479 N.pl3       1 XNC      -0.2908
     26 C5         30.3074    4.9729   40.3933 C.ar        1 XNC       0.1100
     27 C6         30.9681    5.8613   41.2788 C.ar        1 XNC       0.0976
     28 O36        30.7171    7.1954   41.2717 O.3         1 XNC      -0.3423
     29 C1         31.9198    5.3910   42.1996 C.ar        1 XNC      -0.0580
     30 C18        27.9011    2.7377   40.8852 C.ar        1 XNC       0.0130
     31 C23        28.1614    1.6894   41.8075 C.ar        1 XNC       0.1283
     32 F34        28.9394    0.6831   41.4921 F           1 XNC      -0.1917
     33 C22        27.5940    1.7007   43.0982 C.ar        1 XNC      -0.0061
     34 C21        26.7659    2.7617   43.5180 C.ar        1 XNC       0.0849
     35 C20        26.4626    3.7746   42.5868 C.ar        1 XNC      -0.0435
     36 C19        27.0156    3.7649   41.2968 C.ar        1 XNC      -0.0671
     37 O24        26.2245    2.9220   44.7771 O.3         1 XNC      -0.3110
     38 C25        26.4908    2.0200   45.8691 C.3         1 XNC       0.1027
     39 C26        27.9216    1.9437   46.2693 C.ar        1 XNC      -0.0131
     40 C31        28.5856    0.7008   46.3667 C.ar        1 XNC      -0.0578
     41 C30        29.9480    0.6386   46.7152 C.ar        1 XNC      -0.0685
     42 C29        30.6588    1.8213   46.9816 C.ar        1 XNC      -0.0687
     43 C28        30.0015    3.0637   46.9106 C.ar        1 XNC      -0.0685
     44 C27        28.6444    3.1232   46.5521 C.ar        1 XNC      -0.0578
     45 H1         32.6758   -0.0693   39.2730 H           1 XNC       0.0705
     46 H2         35.0185    0.2169   38.7176 H           1 XNC       0.0729
     47 H3         35.7884    2.2876   37.7106 H           1 XNC       0.0684
     48 H4         33.4205    5.1158   36.8811 H           1 XNC       0.0421
     49 H5         34.7225    4.2321   36.0700 H           1 XNC       0.0421
     50 H6         35.0108    4.9826   37.6552 H           1 XNC       0.0421
     51 H7         31.7817    2.1305   41.4756 H           1 XNC       0.0382
     52 H8         32.9031    3.6785   42.9343 H           1 XNC       0.0451
     53 H9         28.1913    1.7498   39.1460 H           1 XNC       0.0812
     54 H10        25.7987    4.3834   35.6676 H           1 XNC       0.0503
     55 H11        27.5287    4.5231   35.3263 H           1 XNC       0.0503
     56 H12        26.7701    8.0509   36.2479 H           1 XNC       0.0237
     57 H13        25.7896    6.9935   35.2240 H           1 XNC       0.0237
     58 H14        27.5498    7.0010   35.0604 H           1 XNC       0.0237
     59 H15        25.6491    5.3474   38.6262 H           1 XNC       0.0237
     60 H16        24.6789    6.0086   37.3117 H           1 XNC       0.0237
     61 H17        25.6598    7.0810   38.3198 H           1 XNC       0.0237
     62 H18        28.2211    7.0460   38.0638 H           1 XNC       0.0444
     63 H19        29.0087    6.0482   36.8603 H           1 XNC       0.0444
     64 H20        29.3702    6.4946   39.6126 H           1 XNC       0.2009
     65 H21        31.1900    7.5389   40.4858 H           1 XNC       0.2432
     66 H22        32.3929    6.0395   42.8304 H           1 XNC       0.0389
     67 H23        27.8063    0.9300   43.7338 H           1 XNC       0.0510
     68 H24        25.8416    4.5417   42.8603 H           1 XNC       0.0491
     69 H25        26.7704    4.5323   40.6714 H           1 XNC       0.0520
     70 H26        26.0788    1.0364   45.6247 H           1 XNC       0.0776
     71 H27        25.9259    2.3883   46.7291 H           1 XNC       0.0776
     72 H28        28.0855   -0.1742   46.1864 H           1 XNC       0.0557
     73 H29        30.4222   -0.2678   46.7770 H           1 XNC       0.0599
     74 H30        31.6526    1.7782   47.2303 H           1 XNC       0.0559
     75 H31        30.5217    3.9252   47.1159 H           1 XNC       0.0599
     76 H32        28.1916    4.0367   46.4952 H           1 XNC       0.0557
@<TRIPOS>BOND
     1     1     2   2
     2     2     3   1
     3     2    10  am
     4     3     4  ar
     5     3     9  ar
     6     4     5  ar
     7     5     6  ar
     8     6     7  ar
     9     7     8   1
    10     7     9  ar
    11    10    11   1
    12    10    14   1
    13    11    12  ar
    14    11    26  ar
    15    12    13  ar
    16    13    29  ar
    17    14    15   1
    18    14    30   1
    19    15    16   1
    20    15    24   2
    21    16    17   2
    22    16    18   2
    23    16    19   1
    24    19    20   1
    25    20    21   1
    26    20    22   1
    27    20    23   1
    28    23    24   1
    29    24    25   1
    30    25    26   1
    31    26    27  ar
    32    27    28   1
    33    27    29  ar
    34    30    31  ar
    35    30    36  ar
    36    31    32   1
    37    31    33  ar
    38    33    34  ar
    39    34    35  ar
    40    34    37   1
    41    35    36  ar
    42    37    38   1
    43    38    39   1
    44    39    40  ar
    45    39    44  ar
    46    40    41  ar
    47    41    42  ar
    48    42    43  ar
    49    43    44  ar
    50     4    45   1
    51     5    46   1
    52     6    47   1
    53     8    48   1
    54     8    49   1
    55     8    50   1
    56    12    51   1
    57    13    52   1
    58    14    53   1
    59    19    54   1
    60    19    55   1
    61    21    56   1
    62    21    57   1
    63    21    58   1
    64    22    59   1
    65    22    60   1
    66    22    61   1
    67    23    62   1
    68    23    63   1
    69    25    64   1
    70    28    65   1
    71    29    66   1
    72    33    67   1
    73    35    68   1
    74    36    69   1
    75    38    70   1
    76    38    71   1
    77    40    72   1
    78    41    73   1
    79    42    74   1
    80    43    75   1
    81    44    76   1
@<TRIPOS>SUBSTRUCTURE
     1  XNC      2

