@<TRIPOS>MOLECULE
3gnw_ligand_044
    76    81
SMALL
GAST_HUCK
****
This file was generated by PARSER (from files_GN.cpp)

@<TRIPOS>ATOM
      1 O35        26.3281    0.6852   44.4419 O.2         1 XNC      -0.3687
      2 C16        27.3458    1.2634   44.0814 C.2         1 XNC       0.2510
      3 C17        28.2682    1.4295   45.1166 C.ar        1 XNC       0.1194
      4 C43        28.6549    0.3481   45.9425 C.ar        1 XNC      -0.0209
      5 C42        29.6322    0.5300   46.9348 C.ar        1 XNC      -0.0435
      6 C41        30.1901    1.8023   47.1410 C.ar        1 XNC      -0.0287
      7 C40        29.7318    2.8878   46.3647 C.ar        1 XNC       0.0301
      8 C44        30.2266    4.2575   46.5922 C.3         1 XNC      -0.0144
      9 N39        28.8133    2.6446   45.3905 N.ar        1 XNC      -0.2781
     10 N7         27.5264    1.5457   42.7650 N.am        1 XNC      -0.2078
     11 C4         28.6786    2.1534   42.2981 C.ar        1 XNC       0.0880
     12 C3         28.9529    3.4946   42.6432 C.ar        1 XNC      -0.0607
     13 C2         30.1406    4.1247   42.2435 C.ar        1 XNC      -0.0955
     14 C8         26.6280    1.0110   41.7348 C.3         1 XNC       0.1162
     15 C9         27.0811   -0.3583   41.4117 C.2         1 XNC       0.0894
     16 S12        25.9124   -1.6190   41.5774 S.o2        1 XNC      -0.0239
     17 O32        24.6706   -1.3650   40.6156 O.2         1 XNC      -0.1768
     18 O33        25.3729   -1.6975   43.0710 O.2         1 XNC      -0.1768
     19 C13        26.6449   -3.2169   41.1841 C.3         1 XNC       0.0705
     20 C14        27.7645   -3.0660   40.1124 C.3         1 XNC      -0.0050
     21 C37        28.5049   -4.4348   39.9562 C.3         1 XNC      -0.0565
     22 C38        27.1777   -2.6804   38.7138 C.3         1 XNC      -0.0565
     23 C15        28.7983   -1.9984   40.6112 C.3         1 XNC       0.0036
     24 C10        28.3451   -0.6548   41.0078 C.2         1 XNC       0.0422
     25 N11        29.3643    0.2227   40.9580 N.pl3       1 XNC      -0.2908
     26 C5         29.5746    1.4765   41.4307 C.ar        1 XNC       0.1100
     27 C6         30.7848    2.1103   41.0456 C.ar        1 XNC       0.0976
     28 O36        31.7023    1.5113   40.2407 O.3         1 XNC      -0.3423
     29 C1         31.0635    3.4258   41.4559 C.ar        1 XNC      -0.0580
     30 C18        26.3690    1.9477   40.5762 C.ar        1 XNC       0.0130
     31 C23        25.8665    3.2540   40.8341 C.ar        1 XNC       0.1283
     32 F34        25.6285    3.6711   42.0499 F           1 XNC      -0.1917
     33 C22        25.6029    4.1524   39.7834 C.ar        1 XNC      -0.0061
     34 C21        25.7919    3.7642   38.4457 C.ar        1 XNC       0.0849
     35 C20        26.2954    2.4789   38.1675 C.ar        1 XNC      -0.0435
     36 C19        26.5762    1.5866   39.2174 C.ar        1 XNC      -0.0671
     37 O24        25.5357    4.6521   37.4401 O.3         1 XNC      -0.3110
     38 C25        24.2829    4.4701   36.7436 C.3         1 XNC       0.1027
     39 C26        24.5727    4.3856   35.2914 C.ar        1 XNC      -0.0131
     40 C31        24.9725    5.5397   34.5772 C.ar        1 XNC      -0.0578
     41 C30        25.2900    5.4596   33.2088 C.ar        1 XNC      -0.0685
     42 C29        25.2148    4.2258   32.5377 C.ar        1 XNC      -0.0687
     43 C28        24.8269    3.0705   33.2386 C.ar        1 XNC      -0.0685
     44 C27        24.5031    3.1501   34.6048 C.ar        1 XNC      -0.0578
     45 H1         28.2336   -0.5746   45.8274 H           1 XNC       0.0705
     46 H2         29.9180   -0.2550   47.5216 H           1 XNC       0.0729
     47 H3         30.8925    1.9398   47.8724 H           1 XNC       0.0684
     48 H4         29.7292    4.9686   45.9320 H           1 XNC       0.0421
     49 H5         31.2996    4.2981   46.4054 H           1 XNC       0.0421
     50 H6         30.0333    4.5496   47.6256 H           1 XNC       0.0421
     51 H7         28.2861    4.0087   43.2116 H           1 XNC       0.0382
     52 H8         30.3378    5.0897   42.5267 H           1 XNC       0.0451
     53 H9         25.6233    0.9387   42.1673 H           1 XNC       0.0812
     54 H10        25.8583   -3.8930   40.8456 H           1 XNC       0.0503
     55 H11        27.0640   -3.6201   42.1104 H           1 XNC       0.0503
     56 H12        29.3017   -4.3655   39.2108 H           1 XNC       0.0237
     57 H13        27.8116   -5.2193   39.6444 H           1 XNC       0.0237
     58 H14        28.9591   -4.7402   40.9009 H           1 XNC       0.0237
     59 H15        26.6410   -1.7350   38.7520 H           1 XNC       0.0237
     60 H16        26.4816   -3.4467   38.3655 H           1 XNC       0.0237
     61 H17        27.9732   -2.5796   37.9717 H           1 XNC       0.0237
     62 H18        29.5485   -1.9109   39.8141 H           1 XNC       0.0444
     63 H19        29.3250   -2.3968   41.4828 H           1 XNC       0.0444
     64 H20        30.1535   -0.1463   40.5394 H           1 XNC       0.2009
     65 H21        31.7858    0.5894   40.5638 H           1 XNC       0.2432
     66 H22        31.9313    3.8842   41.1683 H           1 XNC       0.0389
     67 H23        25.2645    5.0944   39.9877 H           1 XNC       0.0510
     68 H24        26.4473    2.1893   37.1974 H           1 XNC       0.0491
     69 H25        26.9219    0.6614   38.9674 H           1 XNC       0.0520
     70 H26        23.6488    5.3369   36.9425 H           1 XNC       0.0776
     71 H27        23.7154    3.5922   37.0720 H           1 XNC       0.0776
     72 H28        25.0343    6.4454   35.0504 H           1 XNC       0.0557
     73 H29        25.5818    6.2984   32.7022 H           1 XNC       0.0599
     74 H30        25.4497    4.1682   31.5432 H           1 XNC       0.0559
     75 H31        24.7896    2.1691   32.7555 H           1 XNC       0.0599
     76 H32        24.2315    2.2956   35.0987 H           1 XNC       0.0557
@<TRIPOS>BOND
     1     1     2   2
     2     2     3   1
     3     2    10  am
     4     3     4  ar
     5     3     9  ar
     6     4     5  ar
     7     5     6  ar
     8     6     7  ar
     9     7     8   1
    10     7     9  ar
    11    10    11   1
    12    10    14   1
    13    11    12  ar
    14    11    26  ar
    15    12    13  ar
    16    13    29  ar
    17    14    15   1
    18    14    30   1
    19    15    16   1
    20    15    24   2
    21    16    17   2
    22    16    18   2
    23    16    19   1
    24    19    20   1
    25    20    21   1
    26    20    22   1
    27    20    23   1
    28    23    24   1
    29    24    25   1
    30    25    26   1
    31    26    27  ar
    32    27    28   1
    33    27    29  ar
    34    30    31  ar
    35    30    36  ar
    36    31    32   1
    37    31    33  ar
    38    33    34  ar
    39    34    35  ar
    40    34    37   1
    41    35    36  ar
    42    37    38   1
    43    38    39   1
    44    39    40  ar
    45    39    44  ar
    46    40    41  ar
    47    41    42  ar
    48    42    43  ar
    49    43    44  ar
    50     4    45   1
    51     5    46   1
    52     6    47   1
    53     8    48   1
    54     8    49   1
    55     8    50   1
    56    12    51   1
    57    13    52   1
    58    14    53   1
    59    19    54   1
    60    19    55   1
    61    21    56   1
    62    21    57   1
    63    21    58   1
    64    22    59   1
    65    22    60   1
    66    22    61   1
    67    23    62   1
    68    23    63   1
    69    25    64   1
    70    28    65   1
    71    29    66   1
    72    33    67   1
    73    35    68   1
    74    36    69   1
    75    38    70   1
    76    38    71   1
    77    40    72   1
    78    41    73   1
    79    42    74   1
    80    43    75   1
    81    44    76   1
@<TRIPOS>SUBSTRUCTURE
     1  XNC      2

