@<TRIPOS>MOLECULE
3gnw_ligand_058
    76    81
SMALL
GAST_HUCK
****
This file was generated by PARSER (from files_GN.cpp)

@<TRIPOS>ATOM
      1 O35        37.3653    6.4028   41.4871 O.2         1 XNC      -0.3687
      2 C16        36.4107    5.6835   41.2265 C.2         1 XNC       0.2510
      3 C17        35.9469    5.8813   39.9375 C.ar        1 XNC       0.1194
      4 C43        36.5427    5.2089   38.8486 C.ar        1 XNC      -0.0209
      5 C42        36.1708    5.5639   37.5396 C.ar        1 XNC      -0.0435
      6 C41        35.2137    6.5757   37.3307 C.ar        1 XNC      -0.0287
      7 C40        34.6425    7.2254   38.4441 C.ar        1 XNC       0.0301
      8 C44        33.6502    8.3027   38.2760 C.3         1 XNC      -0.0144
      9 N39        35.0389    6.8615   39.6942 N.ar        1 XNC      -0.2781
     10 N7         36.0351    4.6850   42.0579 N.am        1 XNC      -0.2078
     11 C4         34.9581    3.8793   41.7567 C.ar        1 XNC       0.0880
     12 C3         33.6742    4.4562   41.6715 C.ar        1 XNC      -0.0607
     13 C2         32.5413    3.6564   41.4393 C.ar        1 XNC      -0.0955
     14 C8         36.8421    4.2986   43.2210 C.3         1 XNC       0.1162
     15 C9         37.8604    3.3595   42.7159 C.2         1 XNC       0.0894
     16 S12        39.5082    3.8354   42.8980 S.o2        1 XNC      -0.0239
     17 O32        39.8342    4.1880   44.4128 O.2         1 XNC      -0.1768
     18 O33        39.7994    5.1364   42.0300 O.2         1 XNC      -0.1768
     19 C13        40.6295    2.5547   42.3074 C.3         1 XNC       0.0705
     20 C14        39.9403    1.6242   41.2588 C.3         1 XNC      -0.0050
     21 C37        39.7413    2.3466   39.8860 C.3         1 XNC      -0.0565
     22 C38        40.8616    0.3823   41.0250 C.3         1 XNC      -0.0565
     23 C15        38.5599    1.1558   41.8406 C.3         1 XNC       0.0036
     24 C10        37.5474    2.2010   42.0789 C.2         1 XNC       0.0422
     25 N11        36.2946    1.8121   41.7677 N.pl3       1 XNC      -0.2908
     26 C5         35.1112    2.4702   41.6422 C.ar        1 XNC       0.1100
     27 C6         33.9641    1.6739   41.3872 C.ar        1 XNC       0.0976
     28 O36        34.0898    0.3204   41.2721 O.3         1 XNC      -0.3423
     29 C1         32.6896    2.2684   41.2878 C.ar        1 XNC      -0.0580
     30 C18        36.0606    3.8819   44.4564 C.ar        1 XNC       0.0130
     31 C23        36.2850    2.7091   45.2348 C.ar        1 XNC       0.1283
     32 F34        37.2297    1.8506   44.9795 F           1 XNC      -0.1917
     33 C22        35.4922    2.4214   46.3586 C.ar        1 XNC      -0.0061
     34 C21        34.4527    3.2868   46.7582 C.ar        1 XNC       0.0849
     35 C20        34.2565    4.4790   46.0476 C.ar        1 XNC      -0.0435
     36 C19        35.0406    4.7632   44.9120 C.ar        1 XNC      -0.0671
     37 O24        33.7161    3.0063   47.8811 O.3         1 XNC      -0.3110
     38 C25        32.7842    1.9035   47.7726 C.3         1 XNC       0.1027
     39 C26        31.4267    2.2550   47.2743 C.ar        1 XNC      -0.0131
     40 C31        30.9091    3.5696   47.3645 C.ar        1 XNC      -0.0578
     41 C30        29.5979    3.8635   46.9483 C.ar        1 XNC      -0.0685
     42 C29        28.7741    2.8428   46.4440 C.ar        1 XNC      -0.0687
     43 C28        29.2615    1.5254   46.3687 C.ar        1 XNC      -0.0685
     44 C27        30.5705    1.2316   46.7936 C.ar        1 XNC      -0.0578
     45 H1         37.2665    4.5024   38.9961 H           1 XNC       0.0705
     46 H2         36.6166    5.1068   36.7419 H           1 XNC       0.0729
     47 H3         34.9447    6.8289   36.3776 H           1 XNC       0.0684
     48 H4         33.3058    8.6711   39.2461 H           1 XNC       0.0421
     49 H5         32.7880    7.9258   37.7229 H           1 XNC       0.0421
     50 H6         34.0912    9.1368   37.7247 H           1 XNC       0.0421
     51 H7         33.5466    5.4646   41.8049 H           1 XNC       0.0382
     52 H8         31.6148    4.0868   41.4004 H           1 XNC       0.0451
     53 H9         37.3569    5.1957   43.5882 H           1 XNC       0.0812
     54 H10        40.9376    1.9765   43.1826 H           1 XNC       0.0503
     55 H11        41.5204    3.0294   41.8895 H           1 XNC       0.0503
     56 H12        39.2528    1.6816   39.1702 H           1 XNC       0.0237
     57 H13        40.6994    2.6584   39.4665 H           1 XNC       0.0237
     58 H14        39.1199    3.2343   39.9964 H           1 XNC       0.0237
     59 H15        41.0267   -0.1632   41.9564 H           1 XNC       0.0237
     60 H16        41.8351    0.6902   40.6378 H           1 XNC       0.0237
     61 H17        40.4108   -0.3061   40.3069 H           1 XNC       0.0237
     62 H18        38.7369    0.6661   42.8047 H           1 XNC       0.0444
     63 H19        38.1656    0.3771   41.1741 H           1 XNC       0.0444
     64 H20        36.2239    0.8617   41.5837 H           1 XNC       0.2009
     65 H21        33.2083   -0.0690   41.4051 H           1 XNC       0.2432
     66 H22        31.8598    1.6928   41.1274 H           1 XNC       0.0389
     67 H23        35.6630    1.5702   46.9062 H           1 XNC       0.0510
     68 H24        33.5450    5.1433   46.3499 H           1 XNC       0.0491
     69 H25        34.8532    5.6350   44.4056 H           1 XNC       0.0520
     70 H26        32.6464    1.5310   48.7871 H           1 XNC       0.0776
     71 H27        33.2110    1.0774   47.1909 H           1 XNC       0.0776
     72 H28        31.4768    4.3253   47.7564 H           1 XNC       0.0557
     73 H29        29.2399    4.8200   47.0126 H           1 XNC       0.0599
     74 H30        27.8239    3.0580   46.1340 H           1 XNC       0.0559
     75 H31        28.6625    0.7801   46.0047 H           1 XNC       0.0599
     76 H32        30.8951    0.2623   46.7554 H           1 XNC       0.0557
@<TRIPOS>BOND
     1     1     2   2
     2     2     3   1
     3     2    10  am
     4     3     4  ar
     5     3     9  ar
     6     4     5  ar
     7     5     6  ar
     8     6     7  ar
     9     7     8   1
    10     7     9  ar
    11    10    11   1
    12    10    14   1
    13    11    12  ar
    14    11    26  ar
    15    12    13  ar
    16    13    29  ar
    17    14    15   1
    18    14    30   1
    19    15    16   1
    20    15    24   2
    21    16    17   2
    22    16    18   2
    23    16    19   1
    24    19    20   1
    25    20    21   1
    26    20    22   1
    27    20    23   1
    28    23    24   1
    29    24    25   1
    30    25    26   1
    31    26    27  ar
    32    27    28   1
    33    27    29  ar
    34    30    31  ar
    35    30    36  ar
    36    31    32   1
    37    31    33  ar
    38    33    34  ar
    39    34    35  ar
    40    34    37   1
    41    35    36  ar
    42    37    38   1
    43    38    39   1
    44    39    40  ar
    45    39    44  ar
    46    40    41  ar
    47    41    42  ar
    48    42    43  ar
    49    43    44  ar
    50     4    45   1
    51     5    46   1
    52     6    47   1
    53     8    48   1
    54     8    49   1
    55     8    50   1
    56    12    51   1
    57    13    52   1
    58    14    53   1
    59    19    54   1
    60    19    55   1
    61    21    56   1
    62    21    57   1
    63    21    58   1
    64    22    59   1
    65    22    60   1
    66    22    61   1
    67    23    62   1
    68    23    63   1
    69    25    64   1
    70    28    65   1
    71    29    66   1
    72    33    67   1
    73    35    68   1
    74    36    69   1
    75    38    70   1
    76    38    71   1
    77    40    72   1
    78    41    73   1
    79    42    74   1
    80    43    75   1
    81    44    76   1
@<TRIPOS>SUBSTRUCTURE
     1  XNC      2

