@<TRIPOS>MOLECULE
3gnw_ligand_060
    76    81
SMALL
GAST_HUCK
****
This file was generated by PARSER (from files_GN.cpp)

@<TRIPOS>ATOM
      1 O35        29.2531    2.4259   38.8503 O.2         1 XNC      -0.3687
      2 C16        29.5190    2.8400   37.7272 C.2         1 XNC       0.2510
      3 C17        30.5411    2.1255   37.0972 C.ar        1 XNC       0.1194
      4 C43        30.4526    1.6929   35.7517 C.ar        1 XNC      -0.0209
      5 C42        31.5203    0.9794   35.1779 C.ar        1 XNC      -0.0435
      6 C41        32.6656    0.6909   35.9405 C.ar        1 XNC      -0.0287
      7 C40        32.7233    1.1183   37.2826 C.ar        1 XNC       0.0301
      8 C44        33.9016    0.8360   38.1207 C.3         1 XNC      -0.0144
      9 N39        31.6657    1.8018   37.7957 N.ar        1 XNC      -0.2781
     10 N7         28.8264    3.8862   37.2107 N.am        1 XNC      -0.2078
     11 C4         29.2493    4.5292   36.0592 C.ar        1 XNC       0.0880
     12 C3         30.5562    5.0708   36.0070 C.ar        1 XNC      -0.0607
     13 C2         31.0068    5.7641   34.8753 C.ar        1 XNC      -0.0955
     14 C8         27.5909    4.3893   37.8233 C.3         1 XNC       0.1162
     15 C9         26.4830    3.6745   37.1714 C.2         1 XNC       0.0894
     16 S12        25.4538    2.7600   38.2143 S.o2        1 XNC      -0.0239
     17 O32        24.8420    3.6981   39.3470 O.2         1 XNC      -0.1768
     18 O33        26.3108    1.6178   38.9170 O.2         1 XNC      -0.1768
     19 C13        24.1258    1.9782   37.2846 C.3         1 XNC       0.0705
     20 C14        24.5362    1.7445   35.8009 C.3         1 XNC      -0.0050
     21 C37        25.6068    0.6120   35.6755 C.3         1 XNC      -0.0565
     22 C38        23.2613    1.3028   35.0089 C.3         1 XNC      -0.0565
     23 C15        25.0676    3.0980   35.2177 C.3         1 XNC       0.0036
     24 C10        26.2884    3.6605   35.8241 C.2         1 XNC       0.0422
     25 N11        27.0745    4.3026   34.9306 N.pl3       1 XNC      -0.2908
     26 C5         28.3601    4.7431   34.9679 C.ar        1 XNC       0.1100
     27 C6         28.8334    5.4308   33.8211 C.ar        1 XNC       0.0976
     28 O36        28.0363    5.6191   32.7364 O.3         1 XNC      -0.3423
     29 C1         30.1462    5.9394   33.7811 C.ar        1 XNC      -0.0580
     30 C18        27.5043    5.8924   37.9219 C.ar        1 XNC       0.0130
     31 C23        26.4370    6.7041   37.4470 C.ar        1 XNC       0.1283
     32 F34        25.3468    6.2252   36.9221 F           1 XNC      -0.1917
     33 C22        26.5078    8.1098   37.5287 C.ar        1 XNC      -0.0061
     34 C21        27.6120    8.7460   38.1231 C.ar        1 XNC       0.0849
     35 C20        28.6437    7.9584   38.6600 C.ar        1 XNC      -0.0435
     36 C19        28.5899    6.5569   38.5546 C.ar        1 XNC      -0.0671
     37 O24        27.6175   10.1057   38.2047 O.3         1 XNC      -0.3110
     38 C25        28.6852   10.8012   37.5263 C.3         1 XNC       0.1027
     39 C26        28.5990   10.7656   36.0389 C.ar        1 XNC      -0.0131
     40 C31        28.0830   11.8665   35.3078 C.ar        1 XNC      -0.0578
     41 C30        28.0042   11.8251   33.9044 C.ar        1 XNC      -0.0685
     42 C29        28.4710   10.6976   33.2049 C.ar        1 XNC      -0.0687
     43 C28        28.9952    9.6030   33.9166 C.ar        1 XNC      -0.0685
     44 C27        29.0510    9.6309   35.3216 C.ar        1 XNC      -0.0578
     45 H1         29.6172    1.8725   35.1903 H           1 XNC       0.0705
     46 H2         31.4640    0.6616   34.2077 H           1 XNC       0.0729
     47 H3         33.4427    0.1686   35.5196 H           1 XNC       0.0684
     48 H4         33.7778    1.2445   39.1265 H           1 XNC       0.0421
     49 H5         34.7955    1.2830   37.6734 H           1 XNC       0.0421
     50 H6         34.0526   -0.2454   38.2018 H           1 XNC       0.0421
     51 H7         31.1905    4.9581   36.7991 H           1 XNC       0.0382
     52 H8         31.9567    6.1419   34.8517 H           1 XNC       0.0451
     53 H9         27.5849    4.1164   38.8809 H           1 XNC       0.0812
     54 H10        23.2658    2.6499   37.3274 H           1 XNC       0.0503
     55 H11        23.8468    1.0418   37.7748 H           1 XNC       0.0503
     56 H12        25.8401    0.4153   34.6258 H           1 XNC       0.0237
     57 H13        25.2386   -0.3134   36.1256 H           1 XNC       0.0237
     58 H14        26.5379    0.8776   36.1792 H           1 XNC       0.0237
     59 H15        22.4772    2.0618   35.0730 H           1 XNC       0.0237
     60 H16        22.8556    0.3684   35.4070 H           1 XNC       0.0237
     61 H17        23.4912    1.1492   33.9515 H           1 XNC       0.0237
     62 H18        24.2857    3.8574   35.3176 H           1 XNC       0.0444
     63 H19        25.2193    2.9539   34.1442 H           1 XNC       0.0444
     64 H20        26.6365    4.4556   34.0808 H           1 XNC       0.2009
     65 H21        28.1350    6.5708   32.4987 H           1 XNC       0.2432
     66 H22        30.4803    6.4483   32.9572 H           1 XNC       0.0389
     67 H23        25.7441    8.6811   37.1451 H           1 XNC       0.0510
     68 H24        29.4468    8.3940   39.1146 H           1 XNC       0.0491
     69 H25        29.3749    6.0130   38.9406 H           1 XNC       0.0520
     70 H26        29.6600   10.4320   37.8553 H           1 XNC       0.0776
     71 H27        28.6381   11.8416   37.8598 H           1 XNC       0.0776
     72 H28        27.7458   12.7000   35.7961 H           1 XNC       0.0557
     73 H29        27.6008   12.6105   33.3908 H           1 XNC       0.0599
     74 H30        28.4250   10.6731   32.1854 H           1 XNC       0.0559
     75 H31        29.3284    8.7819   33.4090 H           1 XNC       0.0599
     76 H32        29.4301    8.8210   35.8171 H           1 XNC       0.0557
@<TRIPOS>BOND
     1     1     2   2
     2     2     3   1
     3     2    10  am
     4     3     4  ar
     5     3     9  ar
     6     4     5  ar
     7     5     6  ar
     8     6     7  ar
     9     7     8   1
    10     7     9  ar
    11    10    11   1
    12    10    14   1
    13    11    12  ar
    14    11    26  ar
    15    12    13  ar
    16    13    29  ar
    17    14    15   1
    18    14    30   1
    19    15    16   1
    20    15    24   2
    21    16    17   2
    22    16    18   2
    23    16    19   1
    24    19    20   1
    25    20    21   1
    26    20    22   1
    27    20    23   1
    28    23    24   1
    29    24    25   1
    30    25    26   1
    31    26    27  ar
    32    27    28   1
    33    27    29  ar
    34    30    31  ar
    35    30    36  ar
    36    31    32   1
    37    31    33  ar
    38    33    34  ar
    39    34    35  ar
    40    34    37   1
    41    35    36  ar
    42    37    38   1
    43    38    39   1
    44    39    40  ar
    45    39    44  ar
    46    40    41  ar
    47    41    42  ar
    48    42    43  ar
    49    43    44  ar
    50     4    45   1
    51     5    46   1
    52     6    47   1
    53     8    48   1
    54     8    49   1
    55     8    50   1
    56    12    51   1
    57    13    52   1
    58    14    53   1
    59    19    54   1
    60    19    55   1
    61    21    56   1
    62    21    57   1
    63    21    58   1
    64    22    59   1
    65    22    60   1
    66    22    61   1
    67    23    62   1
    68    23    63   1
    69    25    64   1
    70    28    65   1
    71    29    66   1
    72    33    67   1
    73    35    68   1
    74    36    69   1
    75    38    70   1
    76    38    71   1
    77    40    72   1
    78    41    73   1
    79    42    74   1
    80    43    75   1
    81    44    76   1
@<TRIPOS>SUBSTRUCTURE
     1  XNC      2

