@<TRIPOS>MOLECULE
3gnw_ligand_064
    76    81
SMALL
GAST_HUCK
****
This file was generated by PARSER (from files_GN.cpp)

@<TRIPOS>ATOM
      1 O35        39.7503    4.0880   39.8996 O.2         1 XNC      -0.3687
      2 C16        38.7349    3.4170   40.0133 C.2         1 XNC       0.2510
      3 C17        37.8703    3.5837   38.9406 C.ar        1 XNC       0.1194
      4 C43        36.7606    4.4569   38.9868 C.ar        1 XNC      -0.0209
      5 C42        35.9804    4.6375   37.8296 C.ar        1 XNC      -0.0435
      6 C41        36.3147    3.9669   36.6402 C.ar        1 XNC      -0.0287
      7 C40        37.4492    3.1249   36.6204 C.ar        1 XNC       0.0301
      8 C44        37.8657    2.4462   35.3780 C.3         1 XNC      -0.0144
      9 N39        38.1729    2.9715   37.7627 N.ar        1 XNC      -0.2781
     10 N7         38.6060    2.5040   41.0055 N.am        1 XNC      -0.2078
     11 C4         37.4614    1.7526   41.1219 C.ar        1 XNC       0.0880
     12 C3         36.2541    2.3836   41.4996 C.ar        1 XNC      -0.0607
     13 C2         35.0686    1.6462   41.6320 C.ar        1 XNC      -0.0955
     14 C8         39.7076    2.1487   41.9065 C.3         1 XNC       0.1162
     15 C9         40.4913    1.0423   41.3130 C.2         1 XNC       0.0894
     16 S12        42.2015    1.2819   41.2673 S.o2        1 XNC      -0.0239
     17 O32        42.7393    1.4799   42.7508 O.2         1 XNC      -0.1768
     18 O33        42.5474    2.6038   40.4529 O.2         1 XNC      -0.1768
     19 C13        43.0536   -0.0996   40.4857 C.3         1 XNC       0.0705
     20 C14        42.2442   -1.4171   40.6483 C.3         1 XNC      -0.0050
     21 C37        42.8986   -2.5134   39.7430 C.3         1 XNC      -0.0565
     22 C38        42.2932   -1.9414   42.1195 C.3         1 XNC      -0.0565
     23 C15        40.7647   -1.1710   40.1795 C.3         1 XNC       0.0036
     24 C10        39.9526   -0.0909   40.7804 C.2         1 XNC       0.0422
     25 N11        38.6303   -0.3665   40.7208 N.pl3       1 XNC      -0.2908
     26 C5         37.4967    0.3432   40.9557 C.ar        1 XNC       0.1100
     27 C6         36.2856   -0.3889   41.0690 C.ar        1 XNC       0.0976
     28 O36        36.2873   -1.7487   40.9547 O.3         1 XNC      -0.3423
     29 C1         35.0819    0.2633   41.3972 C.ar        1 XNC      -0.0580
     30 C18        39.3244    1.9906   43.3692 C.ar        1 XNC       0.0130
     31 C23        39.4349    3.0730   44.2899 C.ar        1 XNC       0.1283
     32 F34        39.9419    4.2266   43.9409 F           1 XNC      -0.1917
     33 C22        38.9644    2.9617   45.6188 C.ar        1 XNC      -0.0061
     34 C21        38.3817    1.7661   46.0819 C.ar        1 XNC       0.0849
     35 C20        38.2891    0.6779   45.1956 C.ar        1 XNC      -0.0435
     36 C19        38.7712    0.7863   43.8753 C.ar        1 XNC      -0.0671
     37 O24        37.8389    1.7421   47.3463 O.3         1 XNC      -0.3110
     38 C25        38.2565    0.6719   48.2244 C.3         1 XNC       0.1027
     39 C26        37.7084    0.7755   49.6032 C.ar        1 XNC      -0.0131
     40 C31        38.3633    0.1047   50.6628 C.ar        1 XNC      -0.0578
     41 C30        37.8487    0.1477   51.9734 C.ar        1 XNC      -0.0685
     42 C29        36.6512    0.8353   52.2365 C.ar        1 XNC      -0.0687
     43 C28        35.9823    1.4979   51.1924 C.ar        1 XNC      -0.0685
     44 C27        36.5065    1.4695   49.8860 C.ar        1 XNC      -0.0578
     45 H1         36.5292    4.9690   39.8390 H           1 XNC       0.0705
     46 H2         35.1787    5.2701   37.8464 H           1 XNC       0.0729
     47 H3         35.7528    4.1091   35.7968 H           1 XNC       0.0684
     48 H4         38.7860    1.8797   35.5292 H           1 XNC       0.0421
     49 H5         38.0423    3.1866   34.5956 H           1 XNC       0.0421
     50 H6         37.0829    1.7605   35.0499 H           1 XNC       0.0421
     51 H7         36.2365    3.3916   41.6945 H           1 XNC       0.0382
     52 H8         34.2026    2.1096   41.9142 H           1 XNC       0.0451
     53 H9         40.3743    3.0148   41.9236 H           1 XNC       0.0812
     54 H10        44.0551   -0.1920   40.9126 H           1 XNC       0.0503
     55 H11        43.1614    0.1427   39.4257 H           1 XNC       0.0503
     56 H12        42.3875   -3.4719   39.8559 H           1 XNC       0.0237
     57 H13        43.9493   -2.6605   40.0075 H           1 XNC       0.0237
     58 H14        42.8544   -2.2317   38.6888 H           1 XNC       0.0237
     59 H15        41.8762   -1.2128   42.8120 H           1 XNC       0.0237
     60 H16        43.3209   -2.1469   42.4282 H           1 XNC       0.0237
     61 H17        41.7217   -2.8676   42.2191 H           1 XNC       0.0237
     62 H18        40.2449   -2.1257   40.3098 H           1 XNC       0.0444
     63 H19        40.7676   -0.9675   39.1051 H           1 XNC       0.0444
     64 H20        38.4479   -1.2950   40.4999 H           1 XNC       0.2009
     65 H21        35.4604   -2.0580   41.3907 H           1 XNC       0.2432
     66 H22        34.2168   -0.2696   41.4986 H           1 XNC       0.0389
     67 H23        39.0258    3.7666   46.2524 H           1 XNC       0.0510
     68 H24        37.8643   -0.2018   45.5040 H           1 XNC       0.0491
     69 H25        38.6894   -0.0391   43.2764 H           1 XNC       0.0520
     70 H26        39.3519    0.6638   48.2712 H           1 XNC       0.0776
     71 H27        37.9157   -0.2867   47.8152 H           1 XNC       0.0776
     72 H28        39.2203   -0.4232   50.4915 H           1 XNC       0.0557
     73 H29        38.3436   -0.3294   52.7351 H           1 XNC       0.0599
     74 H30        36.2661    0.8496   53.1840 H           1 XNC       0.0559
     75 H31        35.1087    1.9995   51.3851 H           1 XNC       0.0599
     76 H32        35.9927    1.9496   49.1434 H           1 XNC       0.0557
@<TRIPOS>BOND
     1     1     2   2
     2     2     3   1
     3     2    10  am
     4     3     4  ar
     5     3     9  ar
     6     4     5  ar
     7     5     6  ar
     8     6     7  ar
     9     7     8   1
    10     7     9  ar
    11    10    11   1
    12    10    14   1
    13    11    12  ar
    14    11    26  ar
    15    12    13  ar
    16    13    29  ar
    17    14    15   1
    18    14    30   1
    19    15    16   1
    20    15    24   2
    21    16    17   2
    22    16    18   2
    23    16    19   1
    24    19    20   1
    25    20    21   1
    26    20    22   1
    27    20    23   1
    28    23    24   1
    29    24    25   1
    30    25    26   1
    31    26    27  ar
    32    27    28   1
    33    27    29  ar
    34    30    31  ar
    35    30    36  ar
    36    31    32   1
    37    31    33  ar
    38    33    34  ar
    39    34    35  ar
    40    34    37   1
    41    35    36  ar
    42    37    38   1
    43    38    39   1
    44    39    40  ar
    45    39    44  ar
    46    40    41  ar
    47    41    42  ar
    48    42    43  ar
    49    43    44  ar
    50     4    45   1
    51     5    46   1
    52     6    47   1
    53     8    48   1
    54     8    49   1
    55     8    50   1
    56    12    51   1
    57    13    52   1
    58    14    53   1
    59    19    54   1
    60    19    55   1
    61    21    56   1
    62    21    57   1
    63    21    58   1
    64    22    59   1
    65    22    60   1
    66    22    61   1
    67    23    62   1
    68    23    63   1
    69    25    64   1
    70    28    65   1
    71    29    66   1
    72    33    67   1
    73    35    68   1
    74    36    69   1
    75    38    70   1
    76    38    71   1
    77    40    72   1
    78    41    73   1
    79    42    74   1
    80    43    75   1
    81    44    76   1
@<TRIPOS>SUBSTRUCTURE
     1  XNC      2

