@<TRIPOS>MOLECULE
3gnw_ligand_087
    76    81
SMALL
GAST_HUCK
****
This file was generated by PARSER (from files_GN.cpp)

@<TRIPOS>ATOM
      1 O35        31.7695    2.5581   41.6297 O.2         1 XNC      -0.3687
      2 C16        30.5988    2.8990   41.7492 C.2         1 XNC       0.2510
      3 C17        30.3548    3.6129   42.9166 C.ar        1 XNC       0.1194
      4 C43        31.0121    4.8394   43.1728 C.ar        1 XNC      -0.0209
      5 C42        30.8227    5.4767   44.4118 C.ar        1 XNC      -0.0435
      6 C41        29.9864    4.8968   45.3837 C.ar        1 XNC      -0.0287
      7 C40        29.3559    3.6654   45.1011 C.ar        1 XNC       0.0301
      8 C44        28.5024    2.9975   46.0981 C.3         1 XNC      -0.0144
      9 N39        29.5871    3.0726   43.8983 N.ar        1 XNC      -0.2781
     10 N7         29.7144    2.6819   40.7520 N.am        1 XNC      -0.2078
     11 C4         28.3794    3.0058   40.8813 C.ar        1 XNC       0.0880
     12 C3         27.5730    2.2862   41.7947 C.ar        1 XNC      -0.0607
     13 C2         26.2108    2.5865   41.9467 C.ar        1 XNC      -0.0955
     14 C8         30.1506    2.2434   39.4235 C.3         1 XNC       0.1162
     15 C9         30.4917    3.4552   38.6486 C.2         1 XNC       0.0894
     16 S12        32.1128    3.5662   38.0589 S.o2        1 XNC      -0.0239
     17 O32        32.4768    2.3234   37.1383 O.2         1 XNC      -0.1768
     18 O33        33.1163    3.5701   39.2895 O.2         1 XNC      -0.1768
     19 C13        32.3831    5.1012   37.1468 C.3         1 XNC       0.0705
     20 C14        31.3715    6.2071   37.5788 C.3         1 XNC      -0.0050
     21 C37        31.6968    6.7741   39.0009 C.3         1 XNC      -0.0565
     22 C38        31.4726    7.3901   36.5609 C.3         1 XNC      -0.0565
     23 C15        29.9291    5.5951   37.5283 C.3         1 XNC       0.0036
     24 C10        29.6365    4.4979   38.4690 C.2         1 XNC       0.0422
     25 N11        28.4086    4.6008   39.0139 N.pl3       1 XNC      -0.2908
     26 C5         27.7707    3.9632   40.0280 C.ar        1 XNC       0.1100
     27 C6         26.4037    4.2873   40.2193 C.ar        1 XNC       0.0976
     28 O36        25.7818    5.2280   39.4620 O.3         1 XNC      -0.3423
     29 C1         25.6315    3.6036   41.1752 C.ar        1 XNC      -0.0580
     30 C18        29.2351    1.2218   38.7799 C.ar        1 XNC       0.0130
     31 C23        28.9444    0.0136   39.4703 C.ar        1 XNC       0.1283
     32 F34        29.4321   -0.2267   40.6614 F           1 XNC      -0.1917
     33 C22        28.0990   -0.9591   38.9131 C.ar        1 XNC      -0.0061
     34 C21        27.5169   -0.7792   37.6389 C.ar        1 XNC       0.0849
     35 C20        27.8137    0.4058   36.9393 C.ar        1 XNC      -0.0435
     36 C19        28.6600    1.3873   37.4939 C.ar        1 XNC      -0.0671
     37 O24        26.6977   -1.6802   36.9822 O.3         1 XNC      -0.3110
     38 C25        25.9161   -2.6711   37.6803 C.3         1 XNC       0.1027
     39 C26        26.6978   -3.9235   37.8669 C.ar        1 XNC      -0.0131
     40 C31        27.1378   -4.6605   36.7425 C.ar        1 XNC      -0.0578
     41 C30        27.9276   -5.8143   36.9032 C.ar        1 XNC      -0.0685
     42 C29        28.2838   -6.2469   38.1933 C.ar        1 XNC      -0.0687
     43 C28        27.8360   -5.5366   39.3213 C.ar        1 XNC      -0.0685
     44 C27        27.0282   -4.3975   39.1585 C.ar        1 XNC      -0.0578
     45 H1         31.6285    5.2638   42.4743 H           1 XNC       0.0705
     46 H2         31.3010    6.3590   44.6088 H           1 XNC       0.0729
     47 H3         29.8570    5.3610   46.2860 H           1 XNC       0.0684
     48 H4         28.1333    2.0413   45.7238 H           1 XNC       0.0421
     49 H5         27.6465    3.6299   46.3278 H           1 XNC       0.0421
     50 H6         29.0679    2.8174   47.0142 H           1 XNC       0.0421
     51 H7         27.9737    1.5245   42.3498 H           1 XNC       0.0382
     52 H8         25.6437    2.0683   42.6197 H           1 XNC       0.0451
     53 H9         31.0608    1.6424   39.5363 H           1 XNC       0.0812
     54 H10        32.2563    4.8703   36.0855 H           1 XNC       0.0503
     55 H11        33.4142    5.4300   37.2937 H           1 XNC       0.0503
     56 H12        30.9796    7.5517   39.2766 H           1 XNC       0.0237
     57 H13        32.6968    7.2102   39.0238 H           1 XNC       0.0237
     58 H14        31.6525    5.9957   39.7629 H           1 XNC       0.0237
     59 H15        31.2253    7.0602   35.5480 H           1 XNC       0.0237
     60 H16        32.4859    7.7952   36.5475 H           1 XNC       0.0237
     61 H17        30.7855    8.1956   36.8282 H           1 XNC       0.0237
     62 H18        29.7462    5.2036   36.5231 H           1 XNC       0.0444
     63 H19        29.2218    6.4221   37.6638 H           1 XNC       0.0444
     64 H20        27.8573    5.2770   38.5896 H           1 XNC       0.2009
     65 H21        26.0983    6.0810   39.8184 H           1 XNC       0.2432
     66 H22        24.6420    3.8293   41.2928 H           1 XNC       0.0389
     67 H23        27.9064   -1.8049   39.4489 H           1 XNC       0.0510
     68 H24        27.4159    0.5584   36.0112 H           1 XNC       0.0491
     69 H25        28.8503    2.2258   36.9404 H           1 XNC       0.0520
     70 H26        25.0474   -2.8934   37.0670 H           1 XNC       0.0776
     71 H27        25.5431   -2.2666   38.6219 H           1 XNC       0.0776
     72 H28        26.8871   -4.3596   35.7976 H           1 XNC       0.0557
     73 H29        28.2477   -6.3369   36.0855 H           1 XNC       0.0599
     74 H30        28.8790   -7.0704   38.3111 H           1 XNC       0.0559
     75 H31        28.0998   -5.8491   40.2571 H           1 XNC       0.0599
     76 H32        26.7122   -3.8949   39.9910 H           1 XNC       0.0557
@<TRIPOS>BOND
     1     1     2   2
     2     2     3   1
     3     2    10  am
     4     3     4  ar
     5     3     9  ar
     6     4     5  ar
     7     5     6  ar
     8     6     7  ar
     9     7     8   1
    10     7     9  ar
    11    10    11   1
    12    10    14   1
    13    11    12  ar
    14    11    26  ar
    15    12    13  ar
    16    13    29  ar
    17    14    15   1
    18    14    30   1
    19    15    16   1
    20    15    24   2
    21    16    17   2
    22    16    18   2
    23    16    19   1
    24    19    20   1
    25    20    21   1
    26    20    22   1
    27    20    23   1
    28    23    24   1
    29    24    25   1
    30    25    26   1
    31    26    27  ar
    32    27    28   1
    33    27    29  ar
    34    30    31  ar
    35    30    36  ar
    36    31    32   1
    37    31    33  ar
    38    33    34  ar
    39    34    35  ar
    40    34    37   1
    41    35    36  ar
    42    37    38   1
    43    38    39   1
    44    39    40  ar
    45    39    44  ar
    46    40    41  ar
    47    41    42  ar
    48    42    43  ar
    49    43    44  ar
    50     4    45   1
    51     5    46   1
    52     6    47   1
    53     8    48   1
    54     8    49   1
    55     8    50   1
    56    12    51   1
    57    13    52   1
    58    14    53   1
    59    19    54   1
    60    19    55   1
    61    21    56   1
    62    21    57   1
    63    21    58   1
    64    22    59   1
    65    22    60   1
    66    22    61   1
    67    23    62   1
    68    23    63   1
    69    25    64   1
    70    28    65   1
    71    29    66   1
    72    33    67   1
    73    35    68   1
    74    36    69   1
    75    38    70   1
    76    38    71   1
    77    40    72   1
    78    41    73   1
    79    42    74   1
    80    43    75   1
    81    44    76   1
@<TRIPOS>SUBSTRUCTURE
     1  XNC      2

