@<TRIPOS>MOLECULE
3gnw_ligand_049
    76    81
SMALL
GAST_HUCK
****
This file was generated by PARSER (from files_GN.cpp)

@<TRIPOS>ATOM
      1 O35        26.3109    3.5445   38.4852 O.2         1 XNC      -0.3687
      2 C16        26.6192    2.3703   38.3114 C.2         1 XNC       0.2510
      3 C17        26.4726    1.9377   36.9936 C.ar        1 XNC       0.1194
      4 C43        27.4726    1.2106   36.3069 C.ar        1 XNC      -0.0209
      5 C42        27.2189    0.7471   35.0017 C.ar        1 XNC      -0.0435
      6 C41        25.9815    1.0139   34.3890 C.ar        1 XNC      -0.0287
      7 C40        25.0118    1.7569   35.0917 C.ar        1 XNC       0.0301
      8 C44        23.6991    2.0546   34.5008 C.3         1 XNC      -0.0144
      9 N39        25.2979    2.1844   36.3485 N.ar        1 XNC      -0.2781
     10 N7         27.0739    1.6191   39.3485 N.am        1 XNC      -0.2078
     11 C4         27.1515    0.2348   39.2501 C.ar        1 XNC       0.0880
     12 C3         26.0140   -0.4974   38.8246 C.ar        1 XNC      -0.0607
     13 C2         26.0421   -1.8948   38.7117 C.ar        1 XNC      -0.0955
     14 C8         27.6175    2.2461   40.5672 C.3         1 XNC       0.1162
     15 C9         29.0483    2.4348   40.2735 C.2         1 XNC       0.0894
     16 S12        29.6153    4.0550   40.0711 S.o2        1 XNC      -0.0239
     17 O32        29.1932    5.0071   41.2742 O.2         1 XNC      -0.1768
     18 O33        28.9871    4.6552   38.7390 O.2         1 XNC      -0.1768
     19 C13        31.4083    4.0788   39.8690 C.3         1 XNC       0.0705
     20 C14        31.9224    2.7573   39.2175 C.3         1 XNC      -0.0050
     21 C37        31.5063    2.6474   37.7124 C.3         1 XNC      -0.0565
     22 C38        33.4858    2.7479   39.2822 C.3         1 XNC      -0.0565
     23 C15        31.3569    1.5523   40.0491 C.3         1 XNC       0.0036
     24 C10        29.8918    1.3898   40.0764 C.2         1 XNC       0.0422
     25 N11        29.4994    0.1082   39.9751 N.pl3       1 XNC      -0.2908
     26 C5         28.3352   -0.4792   39.5944 C.ar        1 XNC       0.1100
     27 C6         28.3382   -1.8983   39.5158 C.ar        1 XNC       0.0976
     28 O36        29.4235   -2.6626   39.8184 O.3         1 XNC      -0.3423
     29 C1         27.1994   -2.5953   39.0754 C.ar        1 XNC      -0.0580
     30 C18        27.3202    1.6301   41.9250 C.ar        1 XNC       0.0130
     31 C23        28.0446    1.9744   43.1078 C.ar        1 XNC       0.1283
     32 F34        29.0422    2.8234   43.0879 F           1 XNC      -0.1917
     33 C22        27.7104    1.4230   44.3656 C.ar        1 XNC      -0.0061
     34 C21        26.6088    0.5533   44.5070 C.ar        1 XNC       0.0849
     35 C20        25.8568    0.2412   43.3608 C.ar        1 XNC      -0.0435
     36 C19        26.1914    0.7845   42.1043 C.ar        1 XNC      -0.0671
     37 O24        26.2651   -0.0317   45.7039 O.3         1 XNC      -0.3110
     38 C25        25.9194    0.8211   46.8202 C.3         1 XNC       0.1027
     39 C26        24.5403    1.3850   46.7786 C.ar        1 XNC      -0.0131
     40 C31        23.6097    1.1254   47.8156 C.ar        1 XNC      -0.0578
     41 C30        22.3410    1.7354   47.8139 C.ar        1 XNC      -0.0685
     42 C29        21.9757    2.5977   46.7646 C.ar        1 XNC      -0.0687
     43 C28        22.8849    2.8601   45.7245 C.ar        1 XNC      -0.0685
     44 C27        24.1606    2.2697   45.7403 C.ar        1 XNC      -0.0578
     45 H1         28.3786    1.0140   36.7400 H           1 XNC       0.0705
     46 H2         27.9334    0.2131   34.4990 H           1 XNC       0.0729
     47 H3         25.7934    0.6649   33.4452 H           1 XNC       0.0684
     48 H4         23.0692    2.6113   35.1991 H           1 XNC       0.0421
     49 H5         23.1905    1.1243   34.2420 H           1 XNC       0.0421
     50 H6         23.8367    2.6545   33.6003 H           1 XNC       0.0421
     51 H7         25.1482   -0.0120   38.5797 H           1 XNC       0.0382
     52 H8         25.2148   -2.4038   38.3898 H           1 XNC       0.0451
     53 H9         27.1568    3.2308   40.6899 H           1 XNC       0.0812
     54 H10        31.8412    4.1990   40.8649 H           1 XNC       0.0503
     55 H11        31.6912    4.9497   39.2731 H           1 XNC       0.0503
     56 H12        31.8937    1.7262   37.2719 H           1 XNC       0.0237
     57 H13        31.8989    3.4917   37.1416 H           1 XNC       0.0237
     58 H14        30.4227    2.6384   37.5940 H           1 XNC       0.0237
     59 H15        33.8367    2.7855   40.3162 H           1 XNC       0.0237
     60 H16        33.9001    3.6089   38.7532 H           1 XNC       0.0237
     61 H17        33.8900    1.8430   38.8240 H           1 XNC       0.0237
     62 H18        31.6775    1.6549   41.0898 H           1 XNC       0.0444
     63 H19        31.8372    0.6422   39.6707 H           1 XNC       0.0444
     64 H20        30.2201   -0.5171   40.1265 H           1 XNC       0.2009
     65 H21        29.9776   -2.1357   40.4295 H           1 XNC       0.2432
     66 H22        27.2119   -3.6159   39.0096 H           1 XNC       0.0389
     67 H23        28.2686    1.6549   45.1929 H           1 XNC       0.0510
     68 H24        25.0461   -0.3771   43.4432 H           1 XNC       0.0491
     69 H25        25.5898    0.5601   41.3089 H           1 XNC       0.0520
     70 H26        26.6352    1.6419   46.9317 H           1 XNC       0.0776
     71 H27        26.0265    0.1818   47.6990 H           1 XNC       0.0776
     72 H28        23.8552    0.5081   48.5932 H           1 XNC       0.0557
     73 H29        21.6847    1.5556   48.5796 H           1 XNC       0.0599
     74 H30        21.0584    3.0476   46.7672 H           1 XNC       0.0559
     75 H31        22.6257    3.4900   44.9633 H           1 XNC       0.0599
     76 H32        24.8155    2.5083   44.9925 H           1 XNC       0.0557
@<TRIPOS>BOND
     1     1     2   2
     2     2     3   1
     3     2    10  am
     4     3     4  ar
     5     3     9  ar
     6     4     5  ar
     7     5     6  ar
     8     6     7  ar
     9     7     8   1
    10     7     9  ar
    11    10    11   1
    12    10    14   1
    13    11    12  ar
    14    11    26  ar
    15    12    13  ar
    16    13    29  ar
    17    14    15   1
    18    14    30   1
    19    15    16   1
    20    15    24   2
    21    16    17   2
    22    16    18   2
    23    16    19   1
    24    19    20   1
    25    20    21   1
    26    20    22   1
    27    20    23   1
    28    23    24   1
    29    24    25   1
    30    25    26   1
    31    26    27  ar
    32    27    28   1
    33    27    29  ar
    34    30    31  ar
    35    30    36  ar
    36    31    32   1
    37    31    33  ar
    38    33    34  ar
    39    34    35  ar
    40    34    37   1
    41    35    36  ar
    42    37    38   1
    43    38    39   1
    44    39    40  ar
    45    39    44  ar
    46    40    41  ar
    47    41    42  ar
    48    42    43  ar
    49    43    44  ar
    50     4    45   1
    51     5    46   1
    52     6    47   1
    53     8    48   1
    54     8    49   1
    55     8    50   1
    56    12    51   1
    57    13    52   1
    58    14    53   1
    59    19    54   1
    60    19    55   1
    61    21    56   1
    62    21    57   1
    63    21    58   1
    64    22    59   1
    65    22    60   1
    66    22    61   1
    67    23    62   1
    68    23    63   1
    69    25    64   1
    70    28    65   1
    71    29    66   1
    72    33    67   1
    73    35    68   1
    74    36    69   1
    75    38    70   1
    76    38    71   1
    77    40    72   1
    78    41    73   1
    79    42    74   1
    80    43    75   1
    81    44    76   1
@<TRIPOS>SUBSTRUCTURE
     1  XNC      2

