@<TRIPOS>MOLECULE
3gnw_ligand_021
    76    81
SMALL
GAST_HUCK
****
This file was generated by PARSER (from files_GN.cpp)

@<TRIPOS>ATOM
      1 O35        38.2450    5.6143   41.9556 O.2         1 XNC      -0.3687
      2 C16        37.3422    4.8641   41.6088 C.2         1 XNC       0.2510
      3 C17        36.6010    5.3582   40.5584 C.ar        1 XNC       0.1194
      4 C43        36.8445    4.9504   39.2309 C.ar        1 XNC      -0.0209
      5 C42        36.0765    5.5087   38.1974 C.ar        1 XNC      -0.0435
      6 C41        35.0672    6.4450   38.4945 C.ar        1 XNC      -0.0287
      7 C40        34.8434    6.8151   39.8359 C.ar        1 XNC       0.0301
      8 C44        33.7755    7.7633   40.2022 C.3         1 XNC      -0.0144
      9 N39        35.6212    6.2666   40.8041 N.ar        1 XNC      -0.2781
     10 N7         37.1860    3.6339   42.1520 N.am        1 XNC      -0.2078
     11 C4         36.0759    2.8479   41.8697 C.ar        1 XNC       0.0880
     12 C3         34.7753    3.3617   42.1025 C.ar        1 XNC      -0.0607
     13 C2         33.6304    2.5749   41.9064 C.ar        1 XNC      -0.0955
     14 C8         38.1909    3.0607   43.0522 C.3         1 XNC       0.1162
     15 C9         39.1026    2.2678   42.2044 C.2         1 XNC       0.0894
     16 S12        40.7579    2.7496   42.1769 S.o2        1 XNC      -0.0239
     17 O32        41.3665    2.7221   43.6461 O.2         1 XNC      -0.1768
     18 O33        40.8581    4.2413   41.6338 O.2         1 XNC      -0.1768
     19 C13        41.7352    1.6939   41.0888 C.3         1 XNC       0.0705
     20 C14        40.8420    1.0041   40.0094 C.3         1 XNC      -0.0050
     21 C37        40.3613    2.0215   38.9227 C.3         1 XNC      -0.0565
     22 C38        41.6889   -0.1000   39.2933 C.3         1 XNC      -0.0565
     23 C15        39.6272    0.3353   40.7425 C.3         1 XNC       0.0036
     24 C10        38.6821    1.2378   41.4221 C.2         1 XNC       0.0422
     25 N11        37.4030    0.8584   41.2775 N.pl3       1 XNC      -0.2908
     26 C5         36.2124    1.4921   41.4691 C.ar        1 XNC       0.1100
     27 C6         35.0527    0.7109   41.2532 C.ar        1 XNC       0.0976
     28 O36        35.1547   -0.5843   40.8549 O.3         1 XNC      -0.3423
     29 C1         33.7692    1.2501   41.4677 C.ar        1 XNC      -0.0580
     30 C18        37.6375    2.3876   44.2881 C.ar        1 XNC       0.0130
     31 C23        36.5968    3.0101   45.0245 C.ar        1 XNC       0.1283
     32 F34        36.1402    4.1966   44.7255 F           1 XNC      -0.1917
     33 C22        36.0485    2.4004   46.1615 C.ar        1 XNC      -0.0061
     34 C21        36.6089    1.2165   46.6789 C.ar        1 XNC       0.0849
     35 C20        37.6731    0.6046   45.9884 C.ar        1 XNC      -0.0435
     36 C19        38.1642    1.1692   44.7974 C.ar        1 XNC      -0.0671
     37 O24        36.2029    0.6675   47.8726 O.3         1 XNC      -0.3110
     38 C25        36.0862    1.5709   48.9969 C.3         1 XNC       0.1027
     39 C26        36.6399    0.9635   50.2234 C.ar        1 XNC      -0.0131
     40 C31        37.8887    0.2985   50.1812 C.ar        1 XNC      -0.0578
     41 C30        38.4655   -0.2023   51.3600 C.ar        1 XNC      -0.0685
     42 C29        37.8241   -0.0146   52.5964 C.ar        1 XNC      -0.0687
     43 C28        36.5927    0.6637   52.6527 C.ar        1 XNC      -0.0685
     44 C27        36.0042    1.1571   51.4732 C.ar        1 XNC      -0.0578
     45 H1         37.5801    4.2704   39.0139 H           1 XNC       0.0705
     46 H2         36.2471    5.2347   37.2274 H           1 XNC       0.0729
     47 H3         34.5036    6.8423   37.7411 H           1 XNC       0.0684
     48 H4         33.7310    7.9043   41.2846 H           1 XNC       0.0421
     49 H5         32.8133    7.3818   39.8651 H           1 XNC       0.0421
     50 H6         33.9589    8.7321   39.7354 H           1 XNC       0.0421
     51 H7         34.6518    4.3102   42.4601 H           1 XNC       0.0382
     52 H8         32.7026    2.9609   42.0967 H           1 XNC       0.0451
     53 H9         38.7623    3.8751   43.5091 H           1 XNC       0.0812
     54 H10        42.2121    0.9371   41.7183 H           1 XNC       0.0503
     55 H11        42.5281    2.2862   40.6257 H           1 XNC       0.0503
     56 H12        39.7349    1.5232   38.1799 H           1 XNC       0.0237
     57 H13        41.2132    2.4683   38.4058 H           1 XNC       0.0237
     58 H14        39.7778    2.8307   39.3620 H           1 XNC       0.0237
     59 H15        42.0224   -0.8586   40.0043 H           1 XNC       0.0237
     60 H16        42.5719    0.3338   38.8219 H           1 XNC       0.0237
     61 H17        41.1022   -0.6002   38.5204 H           1 XNC       0.0237
     62 H18        40.0079   -0.3547   41.5017 H           1 XNC       0.0444
     63 H19        39.1011   -0.2858   40.0081 H           1 XNC       0.0444
     64 H20        37.3006   -0.0405   40.9270 H           1 XNC       0.2009
     65 H21        34.5530   -1.0828   41.4415 H           1 XNC       0.2432
     66 H22        32.9317    0.6782   41.3260 H           1 XNC       0.0389
     67 H23        35.2748    2.8532   46.6502 H           1 XNC       0.0510
     68 H24        38.0989   -0.2449   46.3607 H           1 XNC       0.0491
     69 H25        38.9519    0.7039   44.3399 H           1 XNC       0.0520
     70 H26        35.0264    1.8134   49.1163 H           1 XNC       0.0776
     71 H27        36.6320    2.5105   48.8645 H           1 XNC       0.0776
     72 H28        38.3844    0.1734   49.2969 H           1 XNC       0.0557
     73 H29        39.3477   -0.7192   51.3091 H           1 XNC       0.0599
     74 H30        38.2407   -0.3893   53.4505 H           1 XNC       0.0559
     75 H31        36.1177    0.7917   53.5497 H           1 XNC       0.0599
     76 H32        35.1257    1.6725   51.5331 H           1 XNC       0.0557
@<TRIPOS>BOND
     1     1     2   2
     2     2     3   1
     3     2    10  am
     4     3     4  ar
     5     3     9  ar
     6     4     5  ar
     7     5     6  ar
     8     6     7  ar
     9     7     8   1
    10     7     9  ar
    11    10    11   1
    12    10    14   1
    13    11    12  ar
    14    11    26  ar
    15    12    13  ar
    16    13    29  ar
    17    14    15   1
    18    14    30   1
    19    15    16   1
    20    15    24   2
    21    16    17   2
    22    16    18   2
    23    16    19   1
    24    19    20   1
    25    20    21   1
    26    20    22   1
    27    20    23   1
    28    23    24   1
    29    24    25   1
    30    25    26   1
    31    26    27  ar
    32    27    28   1
    33    27    29  ar
    34    30    31  ar
    35    30    36  ar
    36    31    32   1
    37    31    33  ar
    38    33    34  ar
    39    34    35  ar
    40    34    37   1
    41    35    36  ar
    42    37    38   1
    43    38    39   1
    44    39    40  ar
    45    39    44  ar
    46    40    41  ar
    47    41    42  ar
    48    42    43  ar
    49    43    44  ar
    50     4    45   1
    51     5    46   1
    52     6    47   1
    53     8    48   1
    54     8    49   1
    55     8    50   1
    56    12    51   1
    57    13    52   1
    58    14    53   1
    59    19    54   1
    60    19    55   1
    61    21    56   1
    62    21    57   1
    63    21    58   1
    64    22    59   1
    65    22    60   1
    66    22    61   1
    67    23    62   1
    68    23    63   1
    69    25    64   1
    70    28    65   1
    71    29    66   1
    72    33    67   1
    73    35    68   1
    74    36    69   1
    75    38    70   1
    76    38    71   1
    77    40    72   1
    78    41    73   1
    79    42    74   1
    80    43    75   1
    81    44    76   1
@<TRIPOS>SUBSTRUCTURE
     1  XNC      2

