@<TRIPOS>MOLECULE
3gnw_ligand_048
    76    81
SMALL
GAST_HUCK
****
This file was generated by PARSER (from files_GN.cpp)

@<TRIPOS>ATOM
      1 O35        29.4842    4.5705   41.8128 O.2         1 XNC      -0.3687
      2 C16        28.9552    3.4993   41.5345 C.2         1 XNC       0.2510
      3 C17        27.9663    3.1374   42.4362 C.ar        1 XNC       0.1194
      4 C43        26.7068    3.7772   42.4250 C.ar        1 XNC      -0.0209
      5 C42        25.7461    3.4182   43.3880 C.ar        1 XNC      -0.0435
      6 C41        26.0393    2.4241   44.3363 C.ar        1 XNC      -0.0287
      7 C40        27.3073    1.8057   44.3225 C.ar        1 XNC       0.0301
      8 C44        27.6450    0.7589   45.3043 C.3         1 XNC      -0.0144
      9 N39        28.2178    2.1937   43.3849 N.ar        1 XNC      -0.2781
     10 N7         29.2278    2.8622   40.3707 N.am        1 XNC      -0.2078
     11 C4         28.6386    1.6521   40.0585 C.ar        1 XNC       0.0880
     12 C3         28.8599    0.5334   40.8955 C.ar        1 XNC      -0.0607
     13 C2         28.2847   -0.7120   40.6071 C.ar        1 XNC      -0.0955
     14 C8         30.0516    3.4780   39.3282 C.3         1 XNC       0.1162
     15 C9         29.1500    4.2756   38.4713 C.2         1 XNC       0.0894
     16 S12        29.5015    5.9571   38.3279 S.o2        1 XNC      -0.0239
     17 O32        31.0037    6.1885   37.8571 O.2         1 XNC      -0.1768
     18 O33        29.3310    6.6559   39.7472 O.2         1 XNC      -0.1768
     19 C13        28.3822    6.7693   37.1693 C.3         1 XNC       0.0705
     20 C14        27.0336    5.9936   37.0444 C.3         1 XNC      -0.0050
     21 C37        26.1513    6.1598   38.3262 C.3         1 XNC      -0.0565
     22 C38        26.2377    6.5711   35.8284 C.3         1 XNC      -0.0565
     23 C15        27.3526    4.4801   36.7788 C.3         1 XNC       0.0036
     24 C10        28.0713    3.7461   37.8351 C.2         1 XNC       0.0422
     25 N11        27.6707    2.4650   37.9457 N.pl3       1 XNC      -0.2908
     26 C5         27.8969    1.4821   38.8587 C.ar        1 XNC       0.1100
     27 C6         27.3353    0.2147   38.5672 C.ar        1 XNC       0.0976
     28 O36        26.6304   -0.0011   37.4278 O.3         1 XNC      -0.3423
     29 C1         27.5186   -0.8697   39.4442 C.ar        1 XNC      -0.0580
     30 C18        30.9968    2.5317   38.6215 C.ar        1 XNC       0.0130
     31 C23        31.7611    1.5936   39.3740 C.ar        1 XNC       0.1283
     32 F34        31.6334    1.5095   40.6713 F           1 XNC      -0.1917
     33 C22        32.6759    0.7261   38.7522 C.ar        1 XNC      -0.0061
     34 C21        32.8628    0.7412   37.3541 C.ar        1 XNC       0.0849
     35 C20        32.0715    1.6351   36.5933 C.ar        1 XNC      -0.0435
     36 C19        31.1849    2.5234   37.2128 C.ar        1 XNC      -0.0671
     37 O24        33.7376   -0.1748   36.8215 O.3         1 XNC      -0.3110
     38 C25        34.1571   -0.1044   35.4403 C.3         1 XNC       0.1027
     39 C26        35.2754    0.8451   35.1709 C.ar        1 XNC      -0.0131
     40 C31        36.5539    0.3683   34.7926 C.ar        1 XNC      -0.0578
     41 C30        37.5925    1.2570   34.4619 C.ar        1 XNC      -0.0685
     42 C29        37.3695    2.6441   34.5002 C.ar        1 XNC      -0.0687
     43 C28        36.1100    3.1406   34.8750 C.ar        1 XNC      -0.0685
     44 C27        35.0725    2.2473   35.1990 C.ar        1 XNC      -0.0578
     45 H1         26.4872    4.5075   41.7421 H           1 XNC       0.0705
     46 H2         24.8355    3.8816   43.3996 H           1 XNC       0.0729
     47 H3         25.3359    2.1595   45.0324 H           1 XNC       0.0684
     48 H4         28.6636    0.3945   45.1646 H           1 XNC       0.0421
     49 H5         26.9585   -0.0820   45.1918 H           1 XNC       0.0421
     50 H6         27.5553    1.1594   46.3161 H           1 XNC       0.0421
     51 H7         29.4504    0.6184   41.7272 H           1 XNC       0.0382
     52 H8         28.4349   -1.5045   41.2372 H           1 XNC       0.0451
     53 H9         30.7618    4.1642   39.8043 H           1 XNC       0.0812
     54 H10        28.8906    6.7958   36.2035 H           1 XNC       0.0503
     55 H11        28.2202    7.7991   37.4905 H           1 XNC       0.0503
     56 H12        25.2214    5.5975   38.2203 H           1 XNC       0.0237
     57 H13        25.9005    7.2092   38.4911 H           1 XNC       0.0237
     58 H14        26.6640    5.7929   39.2154 H           1 XNC       0.0237
     59 H15        26.8014    6.4511   34.8999 H           1 XNC       0.0237
     60 H16        26.0332    7.6354   35.9657 H           1 XNC       0.0237
     61 H17        25.2818    6.0556   35.7083 H           1 XNC       0.0237
     62 H18        27.9663    4.4025   35.8755 H           1 XNC       0.0444
     63 H19        26.4053    3.9820   36.5481 H           1 XNC       0.0444
     64 H20        27.0813    2.1859   37.2273 H           1 XNC       0.2009
     65 H21        25.6916    0.1122   37.6870 H           1 XNC       0.2432
     66 H22        27.1137   -1.7814   39.2249 H           1 XNC       0.0389
     67 H23        33.2112    0.0631   39.3205 H           1 XNC       0.0510
     68 H24        32.1404    1.6519   35.5742 H           1 XNC       0.0491
     69 H25        30.6812    3.1710   36.6026 H           1 XNC       0.0520
     70 H26        33.3192    0.1396   34.7823 H           1 XNC       0.0776
     71 H27        34.4519   -1.1264   35.1805 H           1 XNC       0.0776
     72 H28        36.7318   -0.6363   34.7430 H           1 XNC       0.0557
     73 H29        38.5110    0.8975   34.1969 H           1 XNC       0.0599
     74 H30        38.1217    3.2920   34.2578 H           1 XNC       0.0559
     75 H31        35.9482    4.1524   34.9097 H           1 XNC       0.0599
     76 H32        34.1609    2.6364   35.4367 H           1 XNC       0.0557
@<TRIPOS>BOND
     1     1     2   2
     2     2     3   1
     3     2    10  am
     4     3     4  ar
     5     3     9  ar
     6     4     5  ar
     7     5     6  ar
     8     6     7  ar
     9     7     8   1
    10     7     9  ar
    11    10    11   1
    12    10    14   1
    13    11    12  ar
    14    11    26  ar
    15    12    13  ar
    16    13    29  ar
    17    14    15   1
    18    14    30   1
    19    15    16   1
    20    15    24   2
    21    16    17   2
    22    16    18   2
    23    16    19   1
    24    19    20   1
    25    20    21   1
    26    20    22   1
    27    20    23   1
    28    23    24   1
    29    24    25   1
    30    25    26   1
    31    26    27  ar
    32    27    28   1
    33    27    29  ar
    34    30    31  ar
    35    30    36  ar
    36    31    32   1
    37    31    33  ar
    38    33    34  ar
    39    34    35  ar
    40    34    37   1
    41    35    36  ar
    42    37    38   1
    43    38    39   1
    44    39    40  ar
    45    39    44  ar
    46    40    41  ar
    47    41    42  ar
    48    42    43  ar
    49    43    44  ar
    50     4    45   1
    51     5    46   1
    52     6    47   1
    53     8    48   1
    54     8    49   1
    55     8    50   1
    56    12    51   1
    57    13    52   1
    58    14    53   1
    59    19    54   1
    60    19    55   1
    61    21    56   1
    62    21    57   1
    63    21    58   1
    64    22    59   1
    65    22    60   1
    66    22    61   1
    67    23    62   1
    68    23    63   1
    69    25    64   1
    70    28    65   1
    71    29    66   1
    72    33    67   1
    73    35    68   1
    74    36    69   1
    75    38    70   1
    76    38    71   1
    77    40    72   1
    78    41    73   1
    79    42    74   1
    80    43    75   1
    81    44    76   1
@<TRIPOS>SUBSTRUCTURE
     1  XNC      2

