@<TRIPOS>MOLECULE
3gnw_ligand_063
    76    81
SMALL
GAST_HUCK
****
This file was generated by PARSER (from files_GN.cpp)

@<TRIPOS>ATOM
      1 O35        39.6186    5.4857   42.7230 O.2         1 XNC      -0.3687
      2 C16        38.4109    5.6909   42.6518 C.2         1 XNC       0.2510
      3 C17        38.0696    6.7853   41.8496 C.ar        1 XNC       0.1194
      4 C43        36.9099    6.8329   41.0378 C.ar        1 XNC      -0.0209
      5 C42        36.6662    7.9520   40.2207 C.ar        1 XNC      -0.0435
      6 C41        37.5755    9.0215   40.2009 C.ar        1 XNC      -0.0287
      7 C40        38.7392    8.9422   40.9925 C.ar        1 XNC       0.0301
      8 C44        39.7512   10.0149   40.9842 C.3         1 XNC      -0.0144
      9 N39        38.9260    7.8429   41.7715 N.ar        1 XNC      -0.2781
     10 N7         37.5451    4.8294   43.2417 N.am        1 XNC      -0.2078
     11 C4         36.2529    5.2304   43.5731 C.ar        1 XNC       0.0880
     12 C3         36.0828    6.4425   44.2922 C.ar        1 XNC      -0.0607
     13 C2         34.8317    6.8282   44.7857 C.ar        1 XNC      -0.0955
     14 C8         37.9137    3.4199   43.4157 C.3         1 XNC       0.1162
     15 C9         37.4018    2.7595   42.1971 C.2         1 XNC       0.0894
     16 S12        38.5621    2.2826   41.0153 S.o2        1 XNC      -0.0239
     17 O32        39.7823    1.4765   41.6427 O.2         1 XNC      -0.1768
     18 O33        39.1496    3.5864   40.3202 O.2         1 XNC      -0.1768
     19 C13        37.7811    1.2946   39.7298 C.3         1 XNC       0.0705
     20 C14        36.2812    1.6783   39.5270 C.3         1 XNC      -0.0050
     21 C37        36.1361    3.0695   38.8246 C.3         1 XNC      -0.0565
     22 C38        35.6132    0.6023   38.6088 C.3         1 XNC      -0.0565
     23 C15        35.5739    1.6716   40.9271 C.3         1 XNC       0.0036
     24 C10        36.0786    2.6280   41.9305 C.2         1 XNC       0.0422
     25 N11        35.1114    3.2535   42.6193 N.pl3       1 XNC      -0.2908
     26 C5         35.1062    4.4188   43.3236 C.ar        1 XNC       0.1100
     27 C6         33.8331    4.8507   43.7780 C.ar        1 XNC       0.0976
     28 O36        32.7078    4.1364   43.5038 O.3         1 XNC      -0.3423
     29 C1         33.7069    6.0378   44.5207 C.ar        1 XNC      -0.0580
     30 C18        37.6031    2.6655   44.6928 C.ar        1 XNC       0.0130
     31 C23        37.1717    3.2508   45.9127 C.ar        1 XNC       0.1283
     32 F34        37.1228    4.5341   46.0812 F           1 XNC      -0.1917
     33 C22        36.8781    2.4697   47.0453 C.ar        1 XNC      -0.0061
     34 C21        37.1751    1.0952   47.0576 C.ar        1 XNC       0.0849
     35 C20        37.6814    0.5014   45.8887 C.ar        1 XNC      -0.0435
     36 C19        37.8827    1.2748   44.7332 C.ar        1 XNC      -0.0671
     37 O24        37.0211    0.3334   48.1888 O.3         1 XNC      -0.3110
     38 C25        38.0332    0.5350   49.2028 C.3         1 XNC       0.1027
     39 C26        37.7354    1.6909   50.0956 C.ar        1 XNC      -0.0131
     40 C31        36.6715    1.6139   51.0254 C.ar        1 XNC      -0.0578
     41 C30        36.3625    2.7077   51.8571 C.ar        1 XNC      -0.0685
     42 C29        37.0980    3.9020   51.7561 C.ar        1 XNC      -0.0687
     43 C28        38.1476    3.9991   50.8261 C.ar        1 XNC      -0.0685
     44 C27        38.4731    2.8979   50.0111 C.ar        1 XNC      -0.0578
     45 H1         36.2531    6.0518   41.0050 H           1 XNC       0.0705
     46 H2         35.8309    7.9812   39.6318 H           1 XNC       0.0729
     47 H3         37.4024    9.8315   39.5983 H           1 XNC       0.0684
     48 H4         40.5926    9.7591   41.6294 H           1 XNC       0.0421
     49 H5         39.3081   10.9454   41.3404 H           1 XNC       0.0421
     50 H6         40.1267   10.1611   39.9702 H           1 XNC       0.0421
     51 H7         36.8958    7.0188   44.5240 H           1 XNC       0.0382
     52 H8         34.7429    7.6911   45.3270 H           1 XNC       0.0451
     53 H9         39.0053    3.3344   43.4173 H           1 XNC       0.0812
     54 H10        37.8590    0.2529   40.0476 H           1 XNC       0.0503
     55 H11        38.3468    1.4084   38.8030 H           1 XNC       0.0503
     56 H12        35.0842    3.3079   38.6539 H           1 XNC       0.0237
     57 H13        36.6454    3.0653   37.8588 H           1 XNC       0.0237
     58 H14        36.5652    3.8708   39.4262 H           1 XNC       0.0237
     59 H15        35.6836   -0.3927   39.0537 H           1 XNC       0.0237
     60 H16        36.1014    0.5719   37.6332 H           1 XNC       0.0237
     61 H17        34.5559    0.8269   38.4530 H           1 XNC       0.0237
     62 H18        35.6640    0.6737   41.3672 H           1 XNC       0.0444
     63 H19        34.5029    1.8256   40.7542 H           1 XNC       0.0444
     64 H20        34.2310    2.8662   42.4887 H           1 XNC       0.2009
     65 H21        31.9875    4.7969   43.3870 H           1 XNC       0.2432
     66 H22        32.7939    6.3257   44.8796 H           1 XNC       0.0389
     67 H23        36.4922    2.9123   47.8823 H           1 XNC       0.0510
     68 H24        37.9158   -0.4931   45.8750 H           1 XNC       0.0491
     69 H25        38.2588    0.8057   43.9094 H           1 XNC       0.0520
     70 H26        39.0230    0.6258   48.7455 H           1 XNC       0.0776
     71 H27        38.0688   -0.3681   49.8143 H           1 XNC       0.0776
     72 H28        36.1185    0.7581   51.1071 H           1 XNC       0.0557
     73 H29        35.5951    2.6410   52.5288 H           1 XNC       0.0599
     74 H30        36.8640    4.7032   52.3490 H           1 XNC       0.0559
     75 H31        38.6740    4.8717   50.7407 H           1 XNC       0.0599
     76 H32        39.2304    2.9968   49.3301 H           1 XNC       0.0557
@<TRIPOS>BOND
     1     1     2   2
     2     2     3   1
     3     2    10  am
     4     3     4  ar
     5     3     9  ar
     6     4     5  ar
     7     5     6  ar
     8     6     7  ar
     9     7     8   1
    10     7     9  ar
    11    10    11   1
    12    10    14   1
    13    11    12  ar
    14    11    26  ar
    15    12    13  ar
    16    13    29  ar
    17    14    15   1
    18    14    30   1
    19    15    16   1
    20    15    24   2
    21    16    17   2
    22    16    18   2
    23    16    19   1
    24    19    20   1
    25    20    21   1
    26    20    22   1
    27    20    23   1
    28    23    24   1
    29    24    25   1
    30    25    26   1
    31    26    27  ar
    32    27    28   1
    33    27    29  ar
    34    30    31  ar
    35    30    36  ar
    36    31    32   1
    37    31    33  ar
    38    33    34  ar
    39    34    35  ar
    40    34    37   1
    41    35    36  ar
    42    37    38   1
    43    38    39   1
    44    39    40  ar
    45    39    44  ar
    46    40    41  ar
    47    41    42  ar
    48    42    43  ar
    49    43    44  ar
    50     4    45   1
    51     5    46   1
    52     6    47   1
    53     8    48   1
    54     8    49   1
    55     8    50   1
    56    12    51   1
    57    13    52   1
    58    14    53   1
    59    19    54   1
    60    19    55   1
    61    21    56   1
    62    21    57   1
    63    21    58   1
    64    22    59   1
    65    22    60   1
    66    22    61   1
    67    23    62   1
    68    23    63   1
    69    25    64   1
    70    28    65   1
    71    29    66   1
    72    33    67   1
    73    35    68   1
    74    36    69   1
    75    38    70   1
    76    38    71   1
    77    40    72   1
    78    41    73   1
    79    42    74   1
    80    43    75   1
    81    44    76   1
@<TRIPOS>SUBSTRUCTURE
     1  XNC      2

