@<TRIPOS>MOLECULE
3gnw_ligand_086
    76    81
SMALL
GAST_HUCK
****
This file was generated by PARSER (from files_GN.cpp)

@<TRIPOS>ATOM
      1 O35        26.7589    7.9541   38.0407 O.2         1 XNC      -0.3687
      2 C16        27.2065    7.1458   37.2357 C.2         1 XNC       0.2510
      3 C17        26.2628    6.2439   36.7443 C.ar        1 XNC       0.1194
      4 C43        25.3120    5.6063   37.5740 C.ar        1 XNC      -0.0209
      5 C42        24.3867    4.7117   37.0076 C.ar        1 XNC      -0.0435
      6 C41        24.4035    4.4643   35.6242 C.ar        1 XNC      -0.0287
      7 C40        25.3535    5.1237   34.8177 C.ar        1 XNC       0.0301
      8 C44        25.4023    4.9078   33.3596 C.3         1 XNC      -0.0144
      9 N39        26.2314    5.9755   35.4099 N.ar        1 XNC      -0.2781
     10 N7         28.4989    7.2174   36.8282 N.am        1 XNC      -0.2078
     11 C4         29.0704    6.1783   36.1255 C.ar        1 XNC       0.0880
     12 C3         29.1374    4.9006   36.7304 C.ar        1 XNC      -0.0607
     13 C2         29.7039    3.8125   36.0503 C.ar        1 XNC      -0.0955
     14 C8         29.3326    8.4027   37.0361 C.3         1 XNC       0.1162
     15 C9         29.2288    9.2700   35.8405 C.2         1 XNC       0.0894
     16 S12        28.6191   10.8673   36.1132 S.o2        1 XNC      -0.0239
     17 O32        29.4970   11.6705   37.1687 O.2         1 XNC      -0.1768
     18 O33        27.1771   10.7284   36.7678 O.2         1 XNC      -0.1768
     19 C13        28.4513   11.8034   34.5794 C.3         1 XNC       0.0705
     20 C14        28.2915   10.8499   33.3542 C.3         1 XNC      -0.0050
     21 C37        26.8763   10.1859   33.3229 C.3         1 XNC      -0.0565
     22 C38        28.4517   11.6894   32.0435 C.3         1 XNC      -0.0565
     23 C15        29.4247    9.7687   33.4170 C.3         1 XNC       0.0036
     24 C10        29.3927    8.8368   34.5630 C.2         1 XNC       0.0422
     25 N11        29.6649    7.5706   34.1970 N.pl3       1 XNC      -0.2908
     26 C5         29.6216    6.3724   34.8350 C.ar        1 XNC       0.1100
     27 C6         30.1915    5.2654   34.1555 C.ar        1 XNC       0.0976
     28 O36        30.7774    5.3947   32.9361 O.3         1 XNC      -0.3423
     29 C1         30.2274    3.9977   34.7628 C.ar        1 XNC      -0.0580
     30 C18        30.7275    8.1485   37.5868 C.ar        1 XNC       0.0130
     31 C23        31.0406    8.4258   38.9510 C.ar        1 XNC       0.1283
     32 F34        30.1560    8.9081   39.7829 F           1 XNC      -0.1917
     33 C22        32.3271    8.1850   39.4760 C.ar        1 XNC      -0.0061
     34 C21        33.3462    7.6605   38.6588 C.ar        1 XNC       0.0849
     35 C20        33.0498    7.3400   37.3256 C.ar        1 XNC      -0.0435
     36 C19        31.7722    7.6010   36.8003 C.ar        1 XNC      -0.0671
     37 O24        34.5973    7.3993   39.1582 O.3         1 XNC      -0.3110
     38 C25        35.2650    8.4895   39.8367 C.3         1 XNC       0.1027
     39 C26        36.5583    8.9155   39.2430 C.ar        1 XNC      -0.0131
     40 C31        37.1319    8.2918   38.1082 C.ar        1 XNC      -0.0578
     41 C30        38.3735    8.7218   37.6021 C.ar        1 XNC      -0.0685
     42 C29        39.0564    9.7879   38.2165 C.ar        1 XNC      -0.0687
     43 C28        38.4974   10.4227   39.3401 C.ar        1 XNC      -0.0685
     44 C27        37.2650    9.9809   39.8524 C.ar        1 XNC      -0.0578
     45 H1         25.3062    5.7639   38.5850 H           1 XNC       0.0705
     46 H2         23.7067    4.2372   37.6037 H           1 XNC       0.0729
     47 H3         23.7287    3.8126   35.2134 H           1 XNC       0.0684
     48 H4         26.1764    5.5235   32.8950 H           1 XNC       0.0421
     49 H5         24.4405    5.1682   32.9169 H           1 XNC       0.0421
     50 H6         25.6182    3.8592   33.1471 H           1 XNC       0.0421
     51 H7         28.7728    4.7559   37.6769 H           1 XNC       0.0382
     52 H8         29.7567    2.8967   36.4998 H           1 XNC       0.0451
     53 H9         28.8652    8.9701   37.8414 H           1 XNC       0.0812
     54 H10        29.3596   12.3986   34.4748 H           1 XNC       0.0503
     55 H11        27.6071   12.4918   34.6644 H           1 XNC       0.0503
     56 H12        26.7834    9.5202   32.4613 H           1 XNC       0.0237
     57 H13        26.0976   10.9485   33.2513 H           1 XNC       0.0237
     58 H14        26.6878    9.5968   34.2208 H           1 XNC       0.0237
     59 H15        29.4341   12.1676   32.0019 H           1 XNC       0.0237
     60 H16        27.6890   12.4692   31.9893 H           1 XNC       0.0237
     61 H17        28.3514   11.0559   31.1589 H           1 XNC       0.0237
     62 H18        30.3919   10.2759   33.4449 H           1 XNC       0.0444
     63 H19        29.4030    9.2224   32.4672 H           1 XNC       0.0444
     64 H20        29.9986    7.5047   33.2880 H           1 XNC       0.2009
     65 H21        31.3916    6.1561   33.0206 H           1 XNC       0.2432
     66 H22        30.6636    3.2070   34.2849 H           1 XNC       0.0389
     67 H23        32.5287    8.3964   40.4578 H           1 XNC       0.0510
     68 H24        33.7685    6.9138   36.7360 H           1 XNC       0.0491
     69 H25        31.6216    7.3880   35.8202 H           1 XNC       0.0520
     70 H26        35.4764    8.1341   40.8474 H           1 XNC       0.0776
     71 H27        34.6279    9.3742   39.9339 H           1 XNC       0.0776
     72 H28        36.6589    7.5124   37.6472 H           1 XNC       0.0557
     73 H29        38.7841    8.2554   36.7889 H           1 XNC       0.0599
     74 H30        39.9604   10.0966   37.8514 H           1 XNC       0.0559
     75 H31        38.9913   11.1996   39.7883 H           1 XNC       0.0599
     76 H32        36.8830   10.4472   40.6784 H           1 XNC       0.0557
@<TRIPOS>BOND
     1     1     2   2
     2     2     3   1
     3     2    10  am
     4     3     4  ar
     5     3     9  ar
     6     4     5  ar
     7     5     6  ar
     8     6     7  ar
     9     7     8   1
    10     7     9  ar
    11    10    11   1
    12    10    14   1
    13    11    12  ar
    14    11    26  ar
    15    12    13  ar
    16    13    29  ar
    17    14    15   1
    18    14    30   1
    19    15    16   1
    20    15    24   2
    21    16    17   2
    22    16    18   2
    23    16    19   1
    24    19    20   1
    25    20    21   1
    26    20    22   1
    27    20    23   1
    28    23    24   1
    29    24    25   1
    30    25    26   1
    31    26    27  ar
    32    27    28   1
    33    27    29  ar
    34    30    31  ar
    35    30    36  ar
    36    31    32   1
    37    31    33  ar
    38    33    34  ar
    39    34    35  ar
    40    34    37   1
    41    35    36  ar
    42    37    38   1
    43    38    39   1
    44    39    40  ar
    45    39    44  ar
    46    40    41  ar
    47    41    42  ar
    48    42    43  ar
    49    43    44  ar
    50     4    45   1
    51     5    46   1
    52     6    47   1
    53     8    48   1
    54     8    49   1
    55     8    50   1
    56    12    51   1
    57    13    52   1
    58    14    53   1
    59    19    54   1
    60    19    55   1
    61    21    56   1
    62    21    57   1
    63    21    58   1
    64    22    59   1
    65    22    60   1
    66    22    61   1
    67    23    62   1
    68    23    63   1
    69    25    64   1
    70    28    65   1
    71    29    66   1
    72    33    67   1
    73    35    68   1
    74    36    69   1
    75    38    70   1
    76    38    71   1
    77    40    72   1
    78    41    73   1
    79    42    74   1
    80    43    75   1
    81    44    76   1
@<TRIPOS>SUBSTRUCTURE
     1  XNC      2

