@<TRIPOS>MOLECULE
3gnw_ligand_047
    76    81
SMALL
GAST_HUCK
****
This file was generated by PARSER (from files_GN.cpp)

@<TRIPOS>ATOM
      1 O35        24.5037    3.9670   40.2724 O.2         1 XNC      -0.3687
      2 C16        25.7067    3.7352   40.1779 C.2         1 XNC       0.2510
      3 C17        26.2386    3.1138   41.2884 C.ar        1 XNC       0.1194
      4 C43        26.1937    3.6822   42.5796 C.ar        1 XNC      -0.0209
      5 C42        26.7311    2.9614   43.6623 C.ar        1 XNC      -0.0435
      6 C41        27.2684    1.6787   43.4572 C.ar        1 XNC      -0.0287
      7 C40        27.2725    1.1311   42.1571 C.ar        1 XNC       0.0301
      8 C44        27.7811   -0.2259   41.8926 C.3         1 XNC      -0.0144
      9 N39        26.7658    1.8691   41.1335 N.ar        1 XNC      -0.2781
     10 N7         26.3900    4.0170   39.0459 N.am        1 XNC      -0.2078
     11 C4         25.6858    4.3912   37.9286 C.ar        1 XNC       0.0880
     12 C3         24.8360    3.4425   37.3131 C.ar        1 XNC      -0.0607
     13 C2         24.0481    3.8103   36.2158 C.ar        1 XNC      -0.0955
     14 C8         27.8402    4.1865   38.9846 C.3         1 XNC       0.1162
     15 C9         28.1695    5.5724   39.3779 C.2         1 XNC       0.0894
     16 S12        29.4419    5.7318   40.5310 S.o2        1 XNC      -0.0239
     17 O32        30.7640    5.1006   39.9129 O.2         1 XNC      -0.1768
     18 O33        29.1285    4.9284   41.8640 O.2         1 XNC      -0.1768
     19 C13        29.7354    7.4581   40.9396 C.3         1 XNC       0.0705
     20 C14        29.3825    8.3866   39.7404 C.3         1 XNC      -0.0050
     21 C37        29.4334    9.8688   40.2279 C.3         1 XNC      -0.0565
     22 C38        30.4279    8.2497   38.5849 C.3         1 XNC      -0.0565
     23 C15        27.9200    8.0528   39.2621 C.3         1 XNC       0.0036
     24 C10        27.5828    6.6784   38.8437 C.2         1 XNC       0.0422
     25 N11        26.6257    6.6580   37.8882 N.pl3       1 XNC      -0.2908
     26 C5         25.7973    5.6970   37.3963 C.ar        1 XNC       0.1100
     27 C6         24.9772    6.0598   36.3006 C.ar        1 XNC       0.0976
     28 O36        24.9840    7.3168   35.7996 O.3         1 XNC      -0.3423
     29 C1         24.0925    5.1272   35.7298 C.ar        1 XNC      -0.0580
     30 C18        28.4841    3.6421   37.7268 C.ar        1 XNC       0.0130
     31 C23        29.2023    4.3964   36.7582 C.ar        1 XNC       0.1283
     32 F34        29.3257    5.6890   36.8088 F           1 XNC      -0.1917
     33 C22        29.7624    3.7784   35.6249 C.ar        1 XNC      -0.0061
     34 C21        29.5935    2.4035   35.4048 C.ar        1 XNC       0.0849
     35 C20        28.8924    1.6340   36.3480 C.ar        1 XNC      -0.0435
     36 C19        28.3463    2.2465   37.4890 C.ar        1 XNC      -0.0671
     37 O24        30.0241    1.9112   34.1988 O.3         1 XNC      -0.3110
     38 C25        29.0043    1.4334   33.2944 C.3         1 XNC       0.1027
     39 C26        27.7263    2.2084   33.2438 C.ar        1 XNC      -0.0131
     40 C31        26.4880    1.5869   33.5208 C.ar        1 XNC      -0.0578
     41 C30        25.2851    2.3110   33.4317 C.ar        1 XNC      -0.0685
     42 C29        25.3099    3.6762   33.0938 C.ar        1 XNC      -0.0687
     43 C28        26.5405    4.3257   32.9006 C.ar        1 XNC      -0.0685
     44 C27        27.7412    3.5926   32.9497 C.ar        1 XNC      -0.0578
     45 H1         25.7977    4.6142   42.7332 H           1 XNC       0.0705
     46 H2         26.7253    3.3708   44.5977 H           1 XNC       0.0729
     47 H3         27.6441    1.1499   44.2484 H           1 XNC       0.0684
     48 H4         27.7081   -0.4768   40.8324 H           1 XNC       0.0421
     49 H5         27.1928   -0.9499   42.4587 H           1 XNC       0.0421
     50 H6         28.8269   -0.2957   42.1952 H           1 XNC       0.0421
     51 H7         24.7830    2.4853   37.6701 H           1 XNC       0.0382
     52 H8         23.4251    3.1216   35.7801 H           1 XNC       0.0451
     53 H9         28.2768    3.5375   39.7455 H           1 XNC       0.0812
     54 H10        30.7784    7.5791   41.2430 H           1 XNC       0.0503
     55 H11        29.1021    7.6979   41.7983 H           1 XNC       0.0503
     56 H12        29.2055   10.5554   39.4079 H           1 XNC       0.0237
     57 H13        30.4265   10.1190   40.6119 H           1 XNC       0.0237
     58 H14        28.7110   10.0424   41.0278 H           1 XNC       0.0237
     59 H15        30.5546    7.2175   38.2745 H           1 XNC       0.0237
     60 H16        31.4080    8.6138   38.9041 H           1 XNC       0.0237
     61 H17        30.1223    8.8292   37.7111 H           1 XNC       0.0237
     62 H18        27.6889    8.7568   38.4550 H           1 XNC       0.0444
     63 H19        27.2255    8.2969   40.0752 H           1 XNC       0.0444
     64 H20        26.4980    7.5156   37.4627 H           1 XNC       0.2009
     65 H21        25.6111    7.2893   35.0435 H           1 XNC       0.2432
     66 H22        23.4857    5.4010   34.9541 H           1 XNC       0.0389
     67 H23        30.2558    4.3381   34.9222 H           1 XNC       0.0510
     68 H24        28.7399    0.6363   36.1888 H           1 XNC       0.0491
     69 H25        27.8190    1.6635   38.1406 H           1 XNC       0.0520
     70 H26        28.8148    0.3867   33.5430 H           1 XNC       0.0776
     71 H27        29.4378    1.4421   32.2929 H           1 XNC       0.0776
     72 H28        26.4462    0.5931   33.7598 H           1 XNC       0.0557
     73 H29        24.3943    1.8473   33.6236 H           1 XNC       0.0599
     74 H30        24.4344    4.2002   33.0176 H           1 XNC       0.0559
     75 H31        26.5633    5.3313   32.7198 H           1 XNC       0.0599
     76 H32        28.6259    4.0742   32.7686 H           1 XNC       0.0557
@<TRIPOS>BOND
     1     1     2   2
     2     2     3   1
     3     2    10  am
     4     3     4  ar
     5     3     9  ar
     6     4     5  ar
     7     5     6  ar
     8     6     7  ar
     9     7     8   1
    10     7     9  ar
    11    10    11   1
    12    10    14   1
    13    11    12  ar
    14    11    26  ar
    15    12    13  ar
    16    13    29  ar
    17    14    15   1
    18    14    30   1
    19    15    16   1
    20    15    24   2
    21    16    17   2
    22    16    18   2
    23    16    19   1
    24    19    20   1
    25    20    21   1
    26    20    22   1
    27    20    23   1
    28    23    24   1
    29    24    25   1
    30    25    26   1
    31    26    27  ar
    32    27    28   1
    33    27    29  ar
    34    30    31  ar
    35    30    36  ar
    36    31    32   1
    37    31    33  ar
    38    33    34  ar
    39    34    35  ar
    40    34    37   1
    41    35    36  ar
    42    37    38   1
    43    38    39   1
    44    39    40  ar
    45    39    44  ar
    46    40    41  ar
    47    41    42  ar
    48    42    43  ar
    49    43    44  ar
    50     4    45   1
    51     5    46   1
    52     6    47   1
    53     8    48   1
    54     8    49   1
    55     8    50   1
    56    12    51   1
    57    13    52   1
    58    14    53   1
    59    19    54   1
    60    19    55   1
    61    21    56   1
    62    21    57   1
    63    21    58   1
    64    22    59   1
    65    22    60   1
    66    22    61   1
    67    23    62   1
    68    23    63   1
    69    25    64   1
    70    28    65   1
    71    29    66   1
    72    33    67   1
    73    35    68   1
    74    36    69   1
    75    38    70   1
    76    38    71   1
    77    40    72   1
    78    41    73   1
    79    42    74   1
    80    43    75   1
    81    44    76   1
@<TRIPOS>SUBSTRUCTURE
     1  XNC      2

