@<TRIPOS>MOLECULE
3gnw_ligand_073
    76    81
SMALL
GAST_HUCK
****
This file was generated by PARSER (from files_GN.cpp)

@<TRIPOS>ATOM
      1 O35        36.0963    3.9302   37.3784 O.2         1 XNC      -0.3687
      2 C16        35.6554    4.0604   38.5165 C.2         1 XNC       0.2510
      3 C17        36.0771    3.0794   39.4236 C.ar        1 XNC       0.1194
      4 C43        36.3337    1.7367   39.0516 C.ar        1 XNC      -0.0209
      5 C42        36.7486    0.8061   40.0238 C.ar        1 XNC      -0.0435
      6 C41        36.9264    1.2135   41.3579 C.ar        1 XNC      -0.0287
      7 C40        36.6957    2.5609   41.7005 C.ar        1 XNC       0.0301
      8 C44        36.8765    3.0477   43.0807 C.3         1 XNC      -0.0144
      9 N39        36.2894    3.4176   40.7270 N.ar        1 XNC      -0.2781
     10 N7         34.8899    5.1426   38.8057 N.am        1 XNC      -0.2078
     11 C4         34.2201    5.2421   40.0116 C.ar        1 XNC       0.0880
     12 C3         33.2687    4.2497   40.3551 C.ar        1 XNC      -0.0607
     13 C2         32.6666    4.2485   41.6232 C.ar        1 XNC      -0.0955
     14 C8         34.8057    6.3047   37.9182 C.3         1 XNC       0.1162
     15 C9         35.8877    7.2298   38.3041 C.2         1 XNC       0.0894
     16 S12        37.0314    7.6121   37.0634 S.o2        1 XNC      -0.0239
     17 O32        36.3200    8.1890   35.7637 O.2         1 XNC      -0.1768
     18 O33        37.7665    6.2681   36.6345 O.2         1 XNC      -0.1768
     19 C13        38.2968    8.7522   37.6527 C.3         1 XNC       0.0705
     20 C14        38.4546    8.6598   39.2019 C.3         1 XNC      -0.0050
     21 C37        39.1595    7.3295   39.6257 C.3         1 XNC      -0.0565
     22 C38        39.3429    9.8544   39.6793 C.3         1 XNC      -0.0565
     23 C15        37.0277    8.7839   39.8458 C.3         1 XNC       0.0036
     24 C10        36.0790    7.6912   39.5694 C.2         1 XNC       0.0422
     25 N11        35.3633    7.3216   40.6563 N.pl3       1 XNC      -0.2908
     26 C5         34.5047    6.2989   40.9177 C.ar        1 XNC       0.1100
     27 C6         33.8883    6.2779   42.1957 C.ar        1 XNC       0.0976
     28 O36        34.1340    7.2202   43.1403 O.3         1 XNC      -0.3423
     29 C1         32.9903    5.2542   42.5478 C.ar        1 XNC      -0.0580
     30 C18        33.4174    6.8678   37.7678 C.ar        1 XNC       0.0130
     31 C23        32.4902    6.2362   36.8906 C.ar        1 XNC       0.1283
     32 F34        32.8400    5.1843   36.1813 F           1 XNC      -0.1917
     33 C22        31.1763    6.7243   36.7297 C.ar        1 XNC      -0.0061
     34 C21        30.7289    7.8416   37.4673 C.ar        1 XNC       0.0849
     35 C20        31.6356    8.4572   38.3548 C.ar        1 XNC      -0.0435
     36 C19        32.9593    8.0044   38.4838 C.ar        1 XNC      -0.0671
     37 O24        29.4791    8.4057   37.4225 O.3         1 XNC      -0.3110
     38 C25        28.3196    7.7426   36.8894 C.3         1 XNC       0.1027
     39 C26        28.1744    7.7516   35.4091 C.ar        1 XNC      -0.0131
     40 C31        26.9207    7.3951   34.8478 C.ar        1 XNC      -0.0578
     41 C30        26.7197    7.4301   33.4556 C.ar        1 XNC      -0.0685
     42 C29        27.7646    7.8324   32.6003 C.ar        1 XNC      -0.0687
     43 C28        29.0162    8.1843   33.1468 C.ar        1 XNC      -0.0685
     44 C27        29.2228    8.1380   34.5378 C.ar        1 XNC      -0.0578
     45 H1         36.1976    1.4207   38.0877 H           1 XNC       0.0705
     46 H2         36.9211   -0.1681   39.7596 H           1 XNC       0.0729
     47 H3         37.2310    0.5370   42.0630 H           1 XNC       0.0684
     48 H4         36.6561    4.1142   43.1544 H           1 XNC       0.0421
     49 H5         37.9085    2.8868   43.3960 H           1 XNC       0.0421
     50 H6         36.2094    2.5091   43.7561 H           1 XNC       0.0421
     51 H7         33.0347    3.5073   39.6910 H           1 XNC       0.0382
     52 H8         32.0093    3.5082   41.8797 H           1 XNC       0.0451
     53 H9         35.0081    5.9751   36.8932 H           1 XNC       0.0812
     54 H10        37.9848    9.7577   37.3624 H           1 XNC       0.0503
     55 H11        39.2375    8.5368   37.1399 H           1 XNC       0.0503
     56 H12        39.2862    7.2915   40.7085 H           1 XNC       0.0237
     57 H13        40.1459    7.2517   39.1628 H           1 XNC       0.0237
     58 H14        38.5820    6.4534   39.3268 H           1 XNC       0.0237
     59 H15        38.8752   10.8123   39.4381 H           1 XNC       0.0237
     60 H16        40.3219    9.8231   39.1963 H           1 XNC       0.0237
     61 H17        39.4968    9.8178   40.7600 H           1 XNC       0.0237
     62 H18        36.5533    9.7057   39.4922 H           1 XNC       0.0444
     63 H19        37.1688    8.9050   40.9227 H           1 XNC       0.0444
     64 H20        35.5071    7.9052   41.4181 H           1 XNC       0.2009
     65 H21        34.2263    8.0760   42.6627 H           1 XNC       0.2432
     66 H22        32.5569    5.2414   43.4764 H           1 XNC       0.0389
     67 H23        30.5470    6.2559   36.0796 H           1 XNC       0.0510
     68 H24        31.3287    9.2584   38.9215 H           1 XNC       0.0491
     69 H25        33.5713    8.5112   39.1248 H           1 XNC       0.0520
     70 H26        27.4602    8.2823   37.3079 H           1 XNC       0.0776
     71 H27        28.2721    6.7135   37.2645 H           1 XNC       0.0776
     72 H28        26.1422    7.1110   35.4542 H           1 XNC       0.0557
     73 H29        25.8098    7.1746   33.0629 H           1 XNC       0.0599
     74 H30        27.6182    7.8618   31.5861 H           1 XNC       0.0559
     75 H31        29.7810    8.4630   32.5221 H           1 XNC       0.0599
     76 H32        30.1393    8.4059   34.9054 H           1 XNC       0.0557
@<TRIPOS>BOND
     1     1     2   2
     2     2     3   1
     3     2    10  am
     4     3     4  ar
     5     3     9  ar
     6     4     5  ar
     7     5     6  ar
     8     6     7  ar
     9     7     8   1
    10     7     9  ar
    11    10    11   1
    12    10    14   1
    13    11    12  ar
    14    11    26  ar
    15    12    13  ar
    16    13    29  ar
    17    14    15   1
    18    14    30   1
    19    15    16   1
    20    15    24   2
    21    16    17   2
    22    16    18   2
    23    16    19   1
    24    19    20   1
    25    20    21   1
    26    20    22   1
    27    20    23   1
    28    23    24   1
    29    24    25   1
    30    25    26   1
    31    26    27  ar
    32    27    28   1
    33    27    29  ar
    34    30    31  ar
    35    30    36  ar
    36    31    32   1
    37    31    33  ar
    38    33    34  ar
    39    34    35  ar
    40    34    37   1
    41    35    36  ar
    42    37    38   1
    43    38    39   1
    44    39    40  ar
    45    39    44  ar
    46    40    41  ar
    47    41    42  ar
    48    42    43  ar
    49    43    44  ar
    50     4    45   1
    51     5    46   1
    52     6    47   1
    53     8    48   1
    54     8    49   1
    55     8    50   1
    56    12    51   1
    57    13    52   1
    58    14    53   1
    59    19    54   1
    60    19    55   1
    61    21    56   1
    62    21    57   1
    63    21    58   1
    64    22    59   1
    65    22    60   1
    66    22    61   1
    67    23    62   1
    68    23    63   1
    69    25    64   1
    70    28    65   1
    71    29    66   1
    72    33    67   1
    73    35    68   1
    74    36    69   1
    75    38    70   1
    76    38    71   1
    77    40    72   1
    78    41    73   1
    79    42    74   1
    80    43    75   1
    81    44    76   1
@<TRIPOS>SUBSTRUCTURE
     1  XNC      2

