@<TRIPOS>MOLECULE
3gy4_ligand_005
    20    20
SMALL
GAST_HUCK
****
This file was generated by PARSER (from files_GN.cpp)

@<TRIPOS>ATOM
      1 N2         -3.6324   18.5988   15.9292 N.pl3       1 PBZ      -0.2736
      2 N3         -3.5791   19.6942   17.7750 N.pl3       1 PBZ      -0.2736
      3 C7         -3.3736   18.5804   17.1819 C.cat       1 PBZ       0.2283
      4 C4         -2.9151   17.4335   17.8560 C.ar        1 PBZ       0.0122
      5 C2         -2.5498   14.9931   17.9500 C.ar        1 PBZ      -0.0447
      6 C3         -3.0130   16.1401   17.2768 C.ar        1 PBZ      -0.0685
      7 C5         -2.3278   17.5162   19.1476 C.ar        1 PBZ      -0.0685
      8 C6         -1.8541   16.3735   19.8195 C.ar        1 PBZ      -0.0447
      9 C1         -1.9625   15.1065   19.2231 C.ar        1 PBZ       0.0352
     10 N1         -1.5015   14.0183   19.8637 N.pl3       1 PBZ      -0.3369
     11 H1         -3.5263   17.8370   15.3973 H           1 PBZ       0.3179
     12 H2         -3.9379   19.3904   15.5295 H           1 PBZ       0.3179
     13 H3         -3.4371   19.7829   18.6934 H           1 PBZ       0.3179
     14 H4         -3.8862   20.4319   17.2888 H           1 PBZ       0.3179
     15 H5         -2.6404   14.0736   17.5052 H           1 PBZ       0.0515
     16 H6         -3.4322   16.0081   16.3555 H           1 PBZ       0.0582
     17 H7         -2.2123   18.4199   19.6145 H           1 PBZ       0.0582
     18 H8         -1.4250   16.4738   20.7441 H           1 PBZ       0.0515
     19 H9         -1.5760   13.1424   19.4528 H           1 PBZ       0.1719
     20 H10        -1.0793   14.1088   20.7319 H           1 PBZ       0.1719
@<TRIPOS>BOND
     1     1     3  ar
     2     3     2  ar
     3     3     4   1
     4     4     6  ar
     5     4     7  ar
     6     6     5  ar
     7     5     9  ar
     8     7     8  ar
     9     8     9  ar
    10     9    10   1
    11     1    11   1
    12     1    12   1
    13     2    13   1
    14     2    14   1
    15     5    15   1
    16     6    16   1
    17     7    17   1
    18     8    18   1
    19    10    19   1
    20    10    20   1
@<TRIPOS>SUBSTRUCTURE
     1  PBZ      3

