@<TRIPOS>MOLECULE
3gy4_ligand_012
    20    20
SMALL
GAST_HUCK
****
This file was generated by PARSER (from files_GN.cpp)

@<TRIPOS>ATOM
      1 N2          0.3489   18.5092   16.6082 N.pl3       1 PBZ      -0.2736
      2 N3          1.6619   17.8134   18.1615 N.pl3       1 PBZ      -0.2736
      3 C7          0.6490   17.5679   17.4200 C.cat       1 PBZ       0.2283
      4 C4         -0.0494   16.3459   17.4729 C.ar        1 PBZ       0.0122
      5 C2         -1.6542   14.7366   16.5025 C.ar        1 PBZ      -0.0447
      6 C3         -0.9742   15.9678   16.4572 C.ar        1 PBZ      -0.0685
      7 C5          0.1355   15.4299   18.5451 C.ar        1 PBZ      -0.0685
      8 C6         -0.5452   14.2015   18.5973 C.ar        1 PBZ      -0.0447
      9 C1         -1.4384   13.8503   17.5708 C.ar        1 PBZ       0.0352
     10 N1         -2.0878   12.6758   17.6118 N.pl3       1 PBZ      -0.3369
     11 H1         -0.3457   18.4093   15.9888 H           1 PBZ       0.3179
     12 H2          0.8510   19.2968   16.6012 H           1 PBZ       0.3179
     13 H3          1.9905   17.1654   18.7508 H           1 PBZ       0.3179
     14 H4          2.1102   18.6329   18.0905 H           1 PBZ       0.3179
     15 H5         -2.3069   14.4904   15.7515 H           1 PBZ       0.0515
     16 H6         -1.1594   16.5748   15.6587 H           1 PBZ       0.0582
     17 H7          0.7619   15.6475   19.3225 H           1 PBZ       0.0582
     18 H8         -0.3916   13.5682   19.3860 H           1 PBZ       0.0515
     19 H9         -2.6902   12.4379   16.8942 H           1 PBZ       0.1719
     20 H10        -1.9437   12.0621   18.3496 H           1 PBZ       0.1719
@<TRIPOS>BOND
     1     1     3  ar
     2     3     2  ar
     3     3     4   1
     4     4     6  ar
     5     4     7  ar
     6     6     5  ar
     7     5     9  ar
     8     7     8  ar
     9     8     9  ar
    10     9    10   1
    11     1    11   1
    12     1    12   1
    13     2    13   1
    14     2    14   1
    15     5    15   1
    16     6    16   1
    17     7    17   1
    18     8    18   1
    19    10    19   1
    20    10    20   1
@<TRIPOS>SUBSTRUCTURE
     1  PBZ      3

