@<TRIPOS>MOLECULE
3gy4_ligand_009
    20    20
SMALL
GAST_HUCK
****
This file was generated by PARSER (from files_GN.cpp)

@<TRIPOS>ATOM
      1 N2          0.7759   11.8309   17.3461 N.pl3       1 PBZ      -0.2736
      2 N3          0.0981   11.3242   15.3817 N.pl3       1 PBZ      -0.2736
      3 C7          0.1275   12.2027   16.3094 C.cat       1 PBZ       0.2283
      4 C4         -0.4913   13.4620   16.2000 C.ar        1 PBZ       0.0122
      5 C2         -0.8557   15.7617   17.0249 C.ar        1 PBZ      -0.0447
      6 C3         -0.2572   14.4948   17.1498 C.ar        1 PBZ      -0.0685
      7 C5         -1.3680   13.7645   15.1225 C.ar        1 PBZ      -0.0685
      8 C6         -1.9724   15.0271   14.9977 C.ar        1 PBZ      -0.0447
      9 C1         -1.7206   16.0314   15.9498 C.ar        1 PBZ       0.0352
     10 N1         -2.3121   17.2326   15.8351 N.pl3       1 PBZ      -0.3369
     11 H1          0.8662   12.3930   18.0853 H           1 PBZ       0.3179
     12 H2          1.1588   10.9772   17.3728 H           1 PBZ       0.3179
     13 H3         -0.3445   11.4886   14.5783 H           1 PBZ       0.3179
     14 H4          0.5330   10.5051   15.4997 H           1 PBZ       0.3179
     15 H5         -0.6607   16.4843   17.7231 H           1 PBZ       0.0515
     16 H6          0.3768   14.3500   17.9393 H           1 PBZ       0.0582
     17 H7         -1.5904   13.0644   14.4097 H           1 PBZ       0.0582
     18 H8         -2.5947   15.2084   14.2070 H           1 PBZ       0.0515
     19 H9         -2.1443   17.9273   16.4921 H           1 PBZ       0.1719
     20 H10        -2.9345   17.3924   15.1091 H           1 PBZ       0.1719
@<TRIPOS>BOND
     1     1     3  ar
     2     3     2  ar
     3     3     4   1
     4     4     6  ar
     5     4     7  ar
     6     6     5  ar
     7     5     9  ar
     8     7     8  ar
     9     8     9  ar
    10     9    10   1
    11     1    11   1
    12     1    12   1
    13     2    13   1
    14     2    14   1
    15     5    15   1
    16     6    16   1
    17     7    17   1
    18     8    18   1
    19    10    19   1
    20    10    20   1
@<TRIPOS>SUBSTRUCTURE
     1  PBZ      3

