@<TRIPOS>MOLECULE
3gy4_ligand_002
    20    20
SMALL
GAST_HUCK
****
This file was generated by PARSER (from files_GN.cpp)

@<TRIPOS>ATOM
      1 N2         -1.3038   13.2483   20.1748 N.pl3       1 PBZ      -0.2736
      2 N3         -2.0503   12.5438   18.2911 N.pl3       1 PBZ      -0.2736
      3 C7         -1.4788   13.4910   18.9338 C.cat       1 PBZ       0.2283
      4 C4         -1.0741   14.6934   18.3204 C.ar        1 PBZ       0.0122
      5 C2         -1.1000   16.2458   16.4006 C.ar        1 PBZ      -0.0447
      6 C3         -1.4999   15.0426   17.0097 C.ar        1 PBZ      -0.0685
      7 C5         -0.2221   15.6179   18.9841 C.ar        1 PBZ      -0.0685
      8 C6          0.1792   16.8220   18.3812 C.ar        1 PBZ      -0.0447
      9 C1         -0.2610   17.1410   17.0869 C.ar        1 PBZ       0.0352
     10 N1          0.1158   18.2936   16.5093 N.pl3       1 PBZ      -0.3369
     11 H1         -0.8922   13.8676   20.7392 H           1 PBZ       0.3179
     12 H2         -1.5916   12.4366   20.5383 H           1 PBZ       0.3179
     13 H3         -2.2281   12.6109   17.3776 H           1 PBZ       0.3179
     14 H4         -2.2960   11.7613   18.7377 H           1 PBZ       0.3179
     15 H5         -1.4283   16.4622   15.4563 H           1 PBZ       0.0515
     16 H6         -2.1213   14.4335   16.4757 H           1 PBZ       0.0582
     17 H7          0.1309   15.4315   19.9213 H           1 PBZ       0.0582
     18 H8          0.7923   17.4613   18.8923 H           1 PBZ       0.0515
     19 H9         -0.1795   18.4989   15.6090 H           1 PBZ       0.1719
     20 H10         0.7063   18.9059   16.9781 H           1 PBZ       0.1719
@<TRIPOS>BOND
     1     1     3  ar
     2     3     2  ar
     3     3     4   1
     4     4     6  ar
     5     4     7  ar
     6     6     5  ar
     7     5     9  ar
     8     7     8  ar
     9     8     9  ar
    10     9    10   1
    11     1    11   1
    12     1    12   1
    13     2    13   1
    14     2    14   1
    15     5    15   1
    16     6    16   1
    17     7    17   1
    18     8    18   1
    19    10    19   1
    20    10    20   1
@<TRIPOS>SUBSTRUCTURE
     1  PBZ      3

