@<TRIPOS>MOLECULE
3gy4_ligand_017
    20    20
SMALL
GAST_HUCK
****
This file was generated by PARSER (from files_GN.cpp)

@<TRIPOS>ATOM
      1 N2         -3.2303   14.6116   15.4365 N.pl3       1 PBZ      -0.2736
      2 N3         -2.0510   16.4005   15.2280 N.pl3       1 PBZ      -0.2736
      3 C7         -2.2382   15.3022   15.8566 C.cat       1 PBZ       0.2283
      4 C4         -1.4207   14.8909   16.9218 C.ar        1 PBZ       0.0122
      5 C2         -0.6807   13.1595   18.5090 C.ar        1 PBZ      -0.0447
      6 C3         -1.4963   13.5719   17.4435 C.ar        1 PBZ      -0.0685
      7 C5         -0.4869   15.7737   17.5294 C.ar        1 PBZ      -0.0685
      8 C6          0.3268   15.3623   18.5992 C.ar        1 PBZ      -0.0447
      9 C1          0.2389   14.0487   19.0898 C.ar        1 PBZ       0.0352
     10 N1          1.0256   13.6509   20.1046 N.pl3       1 PBZ      -0.3369
     11 H1         -3.4774   13.8005   15.8296 H           1 PBZ       0.3179
     12 H2         -3.7451   14.9407   14.7341 H           1 PBZ       0.3179
     13 H3         -1.3510   16.9776   15.4468 H           1 PBZ       0.3179
     14 H4         -2.6302   16.6410   14.5392 H           1 PBZ       0.3179
     15 H5         -0.7643   12.2039   18.8519 H           1 PBZ       0.0515
     16 H6         -2.1386   12.8798   17.0509 H           1 PBZ       0.0582
     17 H7         -0.3887   16.7397   17.2124 H           1 PBZ       0.0582
     18 H8          0.9820   16.0269   19.0160 H           1 PBZ       0.0515
     19 H9          0.9534   12.7527   20.4560 H           1 PBZ       0.1719
     20 H10         1.6513   14.2711   20.5070 H           1 PBZ       0.1719
@<TRIPOS>BOND
     1     1     3  ar
     2     3     2  ar
     3     3     4   1
     4     4     6  ar
     5     4     7  ar
     6     6     5  ar
     7     5     9  ar
     8     7     8  ar
     9     8     9  ar
    10     9    10   1
    11     1    11   1
    12     1    12   1
    13     2    13   1
    14     2    14   1
    15     5    15   1
    16     6    16   1
    17     7    17   1
    18     8    18   1
    19    10    19   1
    20    10    20   1
@<TRIPOS>SUBSTRUCTURE
     1  PBZ      3

