@<TRIPOS>MOLECULE
3gy4_ligand_000
    20    20
SMALL
GAST_HUCK
****
This file was generated by PARSER (from files_GN.cpp)

@<TRIPOS>ATOM
      1 N2         -1.2941   13.5836   19.8058 N.pl3       1 PBZ      -0.2736
      2 N3         -0.2450   15.4012   19.3626 N.pl3       1 PBZ      -0.2736
      3 C7         -0.9875   14.4570   18.9239 C.cat       1 PBZ       0.2283
      4 C4         -1.4151   14.3885   17.5885 C.ar        1 PBZ       0.0122
      5 C2         -2.2539   13.0906   15.6644 C.ar        1 PBZ      -0.0447
      6 C3         -1.8695   13.1695   17.0166 C.ar        1 PBZ      -0.0685
      7 C5         -1.3981   15.5339   16.7477 C.ar        1 PBZ      -0.0685
      8 C6         -1.7991   15.4635   15.4024 C.ar        1 PBZ      -0.0447
      9 C1         -2.2161   14.2388   14.8515 C.ar        1 PBZ       0.0352
     10 N1         -2.5692   14.1718   13.5547 N.pl3       1 PBZ      -0.3369
     11 H1         -1.8399   12.8544   19.5953 H           1 PBZ       0.3179
     12 H2         -0.9737   13.6838   20.6808 H           1 PBZ       0.3179
     13 H3          0.0521   16.0857   18.8011 H           1 PBZ       0.3179
     14 H4          0.0176   15.3979   20.2595 H           1 PBZ       0.3179
     15 H5         -2.5531   12.1927   15.2739 H           1 PBZ       0.0515
     16 H6         -1.9007   12.3095   17.5688 H           1 PBZ       0.0582
     17 H7         -1.1048   16.4447   17.1070 H           1 PBZ       0.0582
     18 H8         -1.7853   16.3084   14.8297 H           1 PBZ       0.0515
     19 H9         -2.8616   13.3300   13.1710 H           1 PBZ       0.1719
     20 H10        -2.5355   14.9677   12.9995 H           1 PBZ       0.1719
@<TRIPOS>BOND
     1     1     3  ar
     2     3     2  ar
     3     3     4   1
     4     4     6  ar
     5     4     7  ar
     6     6     5  ar
     7     5     9  ar
     8     7     8  ar
     9     8     9  ar
    10     9    10   1
    11     1    11   1
    12     1    12   1
    13     2    13   1
    14     2    14   1
    15     5    15   1
    16     6    16   1
    17     7    17   1
    18     8    18   1
    19    10    19   1
    20    10    20   1
@<TRIPOS>SUBSTRUCTURE
     1  PBZ      3

