@<TRIPOS>MOLECULE
3gy4_ligand_016
    20    20
SMALL
GAST_HUCK
****
This file was generated by PARSER (from files_GN.cpp)

@<TRIPOS>ATOM
      1 N2         -1.2677   13.2759   20.2648 N.pl3       1 PBZ      -0.2736
      2 N3         -2.1042   12.0495   18.7124 N.pl3       1 PBZ      -0.2736
      3 C7         -1.7403   13.2184   19.0802 C.cat       1 PBZ       0.2283
      4 C4         -1.8569   14.3492   18.2496 C.ar        1 PBZ       0.0122
      5 C2         -1.3590   16.7181   17.7631 C.ar        1 PBZ      -0.0447
      6 C3         -1.2456   15.5863   18.5911 C.ar        1 PBZ      -0.0685
      7 C5         -2.5902   14.3060   17.0324 C.ar        1 PBZ      -0.0685
      8 C6         -2.7063   15.4355   16.2029 C.ar        1 PBZ      -0.0447
      9 C1         -2.0916   16.6469   16.5649 C.ar        1 PBZ       0.0352
     10 N1         -2.2007   17.7296   15.7725 N.pl3       1 PBZ      -0.3369
     11 H1         -0.9755   14.0841   20.6299 H           1 PBZ       0.3179
     12 H2         -1.2078   12.4992   20.7830 H           1 PBZ       0.3179
     13 H3         -2.4565   11.9045   17.8605 H           1 PBZ       0.3179
     14 H4         -2.0135   11.3248   19.2964 H           1 PBZ       0.3179
     15 H5         -0.9030   17.5923   18.0383 H           1 PBZ       0.0515
     16 H6         -0.6941   15.6831   19.4471 H           1 PBZ       0.0582
     17 H7         -3.0634   13.4507   16.7323 H           1 PBZ       0.0582
     18 H8         -3.2434   15.3677   15.3349 H           1 PBZ       0.0515
     19 H9         -1.7771   18.5632   16.0257 H           1 PBZ       0.1719
     20 H10        -2.7084   17.6735   14.9480 H           1 PBZ       0.1719
@<TRIPOS>BOND
     1     1     3  ar
     2     3     2  ar
     3     3     4   1
     4     4     6  ar
     5     4     7  ar
     6     6     5  ar
     7     5     9  ar
     8     7     8  ar
     9     8     9  ar
    10     9    10   1
    11     1    11   1
    12     1    12   1
    13     2    13   1
    14     2    14   1
    15     5    15   1
    16     6    16   1
    17     7    17   1
    18     8    18   1
    19    10    19   1
    20    10    20   1
@<TRIPOS>SUBSTRUCTURE
     1  PBZ      3

