@<TRIPOS>MOLECULE
3gy4_ligand_008
    20    20
SMALL
GAST_HUCK
****
This file was generated by PARSER (from files_GN.cpp)

@<TRIPOS>ATOM
      1 N2         -3.2130   14.4744   16.0549 N.pl3       1 PBZ      -0.2736
      2 N3         -2.0530   13.6057   17.6419 N.pl3       1 PBZ      -0.2736
      3 C7         -2.2534   14.6199   16.8884 C.cat       1 PBZ       0.2283
      4 C4         -1.4786   15.7942   16.9725 C.ar        1 PBZ       0.0122
      5 C2          0.5252   17.0015   17.7677 C.ar        1 PBZ      -0.0447
      6 C3         -0.2430   15.8256   17.6756 C.ar        1 PBZ      -0.0685
      7 C5         -1.9015   17.0085   16.3660 C.ar        1 PBZ      -0.0685
      8 C6         -1.1359   18.1861   16.4538 C.ar        1 PBZ      -0.0447
      9 C1          0.0837   18.1860   17.1524 C.ar        1 PBZ       0.0352
     10 N1          0.8237   19.3064   17.2295 N.pl3       1 PBZ      -0.3369
     11 H1         -3.4325   15.1524   15.4492 H           1 PBZ       0.3179
     12 H2         -3.7079   13.6782   16.0432 H           1 PBZ       0.3179
     13 H3         -1.3812   13.6128   18.2927 H           1 PBZ       0.3179
     14 H4         -2.5853   12.8441   17.5483 H           1 PBZ       0.3179
     15 H5          1.4112   16.9870   18.2792 H           1 PBZ       0.0515
     16 H6          0.1289   14.9844   18.1230 H           1 PBZ       0.0582
     17 H7         -2.7879   17.0604   15.8586 H           1 PBZ       0.0582
     18 H8         -1.4728   19.0411   16.0050 H           1 PBZ       0.0515
     19 H9          1.6688   19.2999   17.7093 H           1 PBZ       0.1719
     20 H10         0.5198   20.1224   16.8020 H           1 PBZ       0.1719
@<TRIPOS>BOND
     1     1     3  ar
     2     3     2  ar
     3     3     4   1
     4     4     6  ar
     5     4     7  ar
     6     6     5  ar
     7     5     9  ar
     8     7     8  ar
     9     8     9  ar
    10     9    10   1
    11     1    11   1
    12     1    12   1
    13     2    13   1
    14     2    14   1
    15     5    15   1
    16     6    16   1
    17     7    17   1
    18     8    18   1
    19    10    19   1
    20    10    20   1
@<TRIPOS>SUBSTRUCTURE
     1  PBZ      3

