@<TRIPOS>MOLECULE
3gy4_ligand_018
    20    20
SMALL
GAST_HUCK
****
This file was generated by PARSER (from files_GN.cpp)

@<TRIPOS>ATOM
      1 N2         -1.8854   16.7189   25.3227 N.pl3       1 PBZ      -0.2736
      2 N3          0.0661   16.6357   24.4424 N.pl3       1 PBZ      -0.2736
      3 C7         -1.1309   17.0762   24.3542 C.cat       1 PBZ       0.2283
      4 C4         -1.5784   17.8885   23.2917 C.ar        1 PBZ       0.0122
      5 C2         -1.1180   19.2717   21.2974 C.ar        1 PBZ      -0.0447
      6 C3         -0.6745   18.4405   22.3426 C.ar        1 PBZ      -0.0685
      7 C5         -2.9542   18.2094   23.1304 C.ar        1 PBZ      -0.0685
      8 C6         -3.3993   19.0527   22.0964 C.ar        1 PBZ      -0.0447
      9 C1         -2.4838   19.5827   21.1706 C.ar        1 PBZ       0.0352
     10 N1         -2.9145   20.3737   20.1719 N.pl3       1 PBZ      -0.3369
     11 H1         -2.7771   16.9935   25.3623 H           1 PBZ       0.3179
     12 H2         -1.5470   16.1848   26.0140 H           1 PBZ       0.3179
     13 H3          0.7070   16.8252   23.7890 H           1 PBZ       0.3179
     14 H4          0.3108   16.1054   25.1700 H           1 PBZ       0.3179
     15 H5         -0.4394   19.6518   20.6317 H           1 PBZ       0.0515
     16 H6          0.3297   18.2555   22.4013 H           1 PBZ       0.0582
     17 H7         -3.6619   17.8302   23.7628 H           1 PBZ       0.0582
     18 H8         -4.3944   19.2758   22.0229 H           1 PBZ       0.0515
     19 H9         -2.2838   20.7335   19.5287 H           1 PBZ       0.1719
     20 H10        -3.8595   20.5772   20.0869 H           1 PBZ       0.1719
@<TRIPOS>BOND
     1     1     3  ar
     2     3     2  ar
     3     3     4   1
     4     4     6  ar
     5     4     7  ar
     6     6     5  ar
     7     5     9  ar
     8     7     8  ar
     9     8     9  ar
    10     9    10   1
    11     1    11   1
    12     1    12   1
    13     2    13   1
    14     2    14   1
    15     5    15   1
    16     6    16   1
    17     7    17   1
    18     8    18   1
    19    10    19   1
    20    10    20   1
@<TRIPOS>SUBSTRUCTURE
     1  PBZ      3

