@<TRIPOS>MOLECULE
3huc_ligand_073
    43    46
SMALL
GAST_HUCK
****
This file was generated by PARSER (from files_GN.cpp)

@<TRIPOS>ATOM
      1 CAH        20.5443   -6.7861  -14.2300 C.ar        1 G97      -0.0465
      2 CAE        20.3032   -7.6546  -15.3122 C.ar        1 G97      -0.0569
      3 CAD        19.8202   -8.9532  -15.0823 C.ar        1 G97      -0.0580
      4 CAF        19.5632   -9.3841  -13.7678 C.ar        1 G97      -0.0569
      5 CAI        19.8038   -8.5179  -12.6842 C.ar        1 G97      -0.0465
      6 CAW        20.3083   -7.2117  -12.9015 C.ar        1 G97       0.0141
      7 C2         20.5559   -6.3491  -11.8111 C.ar        1 G97       0.0921
      8 N1         19.6422   -6.2484  -10.8160 N.ar        1 G97      -0.2553
      9 N3         21.6928   -5.6145  -11.7231 N.ar        1 G97      -0.3009
     10 C4         21.9351   -4.7953  -10.6666 C.ar        1 G97       0.0255
     11 CAM        23.1444   -4.0751  -10.6201 C.ar        1 G97      -0.0253
     12 CAU        23.4495   -3.2219   -9.5335 C.ar        1 G97       0.0730
     13 NAQ        24.6664   -2.5814   -9.5699 N.am        1 G97      -0.2295
     14 CAT        25.4209   -2.1128   -8.5770 C.2         1 G97       0.2258
     15 OAB        25.0863   -2.2712   -7.4120 O.2         1 G97      -0.3745
     16 CAC        26.6251   -1.5433   -8.8649 C.2         1 G97       0.0150
     17 CAA        27.4449   -0.9635   -7.9727 C.2         1 G97      -0.0781
     18 CAK        22.4715   -3.0700   -8.5205 C.ar        1 G97      -0.0283
     19 CAL        21.2577   -3.7845   -8.5576 C.ar        1 G97      -0.0465
     20 C5         20.9713   -4.6735   -9.6237 C.ar        1 G97       0.0455
     21 C6         19.7840   -5.4449   -9.7306 C.ar        1 G97       0.1561
     22 NAR        18.7809   -5.3788   -8.8115 N.pl3       1 G97      -0.2206
     23 CAV        17.5792   -6.0303   -8.7901 C.2         1 G97       0.1818
     24 CAJ        17.0528   -7.0977   -9.5177 C.2         1 G97      -0.0280
     25 CAG        15.7741   -7.3079   -9.0254 C.2         1 G97      -0.0243
     26 NAS        15.5503   -6.4091   -8.0552 N.2         1 G97      -0.2412
     27 NAN        16.6094   -5.6733   -7.9284 N.pl3       1 G97      -0.2006
     28 H1         20.8861   -5.8399  -14.4201 H           1 G97       0.0660
     29 H2         20.4889   -7.3432  -16.2677 H           1 G97       0.0628
     30 H3         19.6598   -9.5809  -15.8689 H           1 G97       0.0649
     31 H4         19.2153  -10.3286  -13.5940 H           1 G97       0.0628
     32 H5         19.6324   -8.8581  -11.7344 H           1 G97       0.0660
     33 H6         23.8184   -4.1944  -11.3822 H           1 G97       0.0447
     34 H7         25.0665   -2.5192  -10.4539 H           1 G97       0.2290
     35 H8         26.9321   -1.5487   -9.8100 H           1 G97       0.0698
     36 H9         28.2958   -0.5534   -8.2752 H           1 G97       0.0686
     37 H10        27.2221   -0.9226   -7.0071 H           1 G97       0.0686
     38 H11        22.6283   -2.4274   -7.7446 H           1 G97       0.0570
     39 H12        20.5864   -3.6478   -7.7986 H           1 G97       0.0666
     40 H13        18.9177   -4.7576   -8.0806 H           1 G97       0.2279
     41 H14        17.5006   -7.6437  -10.2522 H           1 G97       0.0216
     42 H15        15.1138   -8.0228   -9.3366 H           1 G97       0.0607
     43 H16        16.6878   -4.9503   -7.2878 H           1 G97       0.2521
@<TRIPOS>BOND
     1     1     2  ar
     2     1     6  ar
     3     2     3  ar
     4     3     4  ar
     5     4     5  ar
     6     5     6  ar
     7     6     7   1
     8     7     8  ar
     9     7     9  ar
    10     8    21  ar
    11     9    10  ar
    12    10    11  ar
    13    10    20  ar
    14    11    12  ar
    15    12    13   1
    16    12    18  ar
    17    13    14  am
    18    14    15   2
    19    14    16   1
    20    16    17   2
    21    18    19  ar
    22    19    20  ar
    23    20    21  ar
    24    21    22   1
    25    22    23   1
    26    23    24   2
    27    23    27   1
    28    24    25   1
    29    25    26   2
    30    26    27   1
    31     1    28   1
    32     2    29   1
    33     3    30   1
    34     4    31   1
    35     5    32   1
    36    11    33   1
    37    13    34   1
    38    16    35   1
    39    17    36   1
    40    17    37   1
    41    18    38   1
    42    19    39   1
    43    22    40   1
    44    24    41   1
    45    25    42   1
    46    27    43   1
@<TRIPOS>SUBSTRUCTURE
     1  G97      1

