@<TRIPOS>MOLECULE
3huc_ligand_029
    43    46
SMALL
GAST_HUCK
****
This file was generated by PARSER (from files_GN.cpp)

@<TRIPOS>ATOM
      1 CAH        25.9962   -3.8395  -11.3904 C.ar        1 G97      -0.0465
      2 CAE        27.2705   -3.9178  -10.8020 C.ar        1 G97      -0.0569
      3 CAD        27.4398   -4.5952   -9.5791 C.ar        1 G97      -0.0580
      4 CAF        26.3423   -5.2078   -8.9575 C.ar        1 G97      -0.0569
      5 CAI        25.0689   -5.1435   -9.5554 C.ar        1 G97      -0.0465
      6 CAW        24.8759   -4.4486  -10.7783 C.ar        1 G97       0.0141
      7 C2         23.5818   -4.3367  -11.3448 C.ar        1 G97       0.0921
      8 N1         22.7095   -5.3666  -11.2635 N.ar        1 G97      -0.2553
      9 N3         23.1602   -3.2033  -11.9621 N.ar        1 G97      -0.3009
     10 C4         21.8877   -3.0541  -12.3981 C.ar        1 G97       0.0255
     11 CAM        21.5191   -1.8350  -12.9917 C.ar        1 G97      -0.0253
     12 CAU        20.1724   -1.5731  -13.3380 C.ar        1 G97       0.0730
     13 NAQ        19.7126   -0.4355  -13.9557 N.am        1 G97      -0.2295
     14 CAT        20.3203    0.6806  -14.3200 C.2         1 G97       0.2258
     15 OAB        21.4959    0.9394  -14.0953 O.2         1 G97      -0.3745
     16 CAC        19.5696    1.6307  -14.9166 C.2         1 G97       0.0150
     17 CAA        19.7864    2.0721  -16.1640 C.2         1 G97      -0.0781
     18 CAK        19.2096   -2.5555  -13.0164 C.ar        1 G97      -0.0283
     19 CAL        19.5834   -3.7952  -12.4613 C.ar        1 G97      -0.0465
     20 C5         20.9401   -4.1015  -12.2152 C.ar        1 G97       0.0455
     21 C6         21.4360   -5.3386  -11.7171 C.ar        1 G97       0.1561
     22 NAR        20.9354   -6.5922  -11.6876 N.pl3       1 G97      -0.2206
     23 CAV        19.9919   -7.2033  -12.4341 C.2         1 G97       0.1818
     24 CAJ        19.8130   -8.5793  -12.4078 C.2         1 G97      -0.0280
     25 CAG        18.8294   -8.8709  -13.3396 C.2         1 G97      -0.0243
     26 NAS        18.4459   -7.7049  -13.9022 N.2         1 G97      -0.2412
     27 NAN        19.1422   -6.7464  -13.3814 N.pl3       1 G97      -0.2006
     28 H1         25.8970   -3.3397  -12.2773 H           1 G97       0.0660
     29 H2         28.0733   -3.4811  -11.2614 H           1 G97       0.0628
     30 H3         28.3675   -4.6436   -9.1471 H           1 G97       0.0649
     31 H4         26.4602   -5.6976   -8.0664 H           1 G97       0.0628
     32 H5         24.2852   -5.5875   -9.0707 H           1 G97       0.0660
     33 H6         22.2521   -1.1425  -13.1685 H           1 G97       0.0447
     34 H7         18.7701   -0.4670  -14.1798 H           1 G97       0.2290
     35 H8         18.7915    1.9898  -14.4188 H           1 G97       0.0698
     36 H9         19.1793    2.7490  -16.5644 H           1 G97       0.0686
     37 H10        20.5411    1.7342  -16.7123 H           1 G97       0.0686
     38 H11        18.2154   -2.3719  -13.1883 H           1 G97       0.0570
     39 H12        18.8463   -4.4517  -12.1852 H           1 G97       0.0666
     40 H13        21.4887   -7.2210  -11.1951 H           1 G97       0.2279
     41 H14        20.3403   -9.2653  -11.8613 H           1 G97       0.0216
     42 H15        18.4626   -9.7906  -13.5720 H           1 G97       0.0607
     43 H16        19.0766   -5.8127  -13.6584 H           1 G97       0.2521
@<TRIPOS>BOND
     1     1     2  ar
     2     1     6  ar
     3     2     3  ar
     4     3     4  ar
     5     4     5  ar
     6     5     6  ar
     7     6     7   1
     8     7     8  ar
     9     7     9  ar
    10     8    21  ar
    11     9    10  ar
    12    10    11  ar
    13    10    20  ar
    14    11    12  ar
    15    12    13   1
    16    12    18  ar
    17    13    14  am
    18    14    15   2
    19    14    16   1
    20    16    17   2
    21    18    19  ar
    22    19    20  ar
    23    20    21  ar
    24    21    22   1
    25    22    23   1
    26    23    24   2
    27    23    27   1
    28    24    25   1
    29    25    26   2
    30    26    27   1
    31     1    28   1
    32     2    29   1
    33     3    30   1
    34     4    31   1
    35     5    32   1
    36    11    33   1
    37    13    34   1
    38    16    35   1
    39    17    36   1
    40    17    37   1
    41    18    38   1
    42    19    39   1
    43    22    40   1
    44    24    41   1
    45    25    42   1
    46    27    43   1
@<TRIPOS>SUBSTRUCTURE
     1  G97      1

