@<TRIPOS>MOLECULE
3huc_ligand_015
    43    46
SMALL
GAST_HUCK
****
This file was generated by PARSER (from files_GN.cpp)

@<TRIPOS>ATOM
      1 CAH        19.7423    0.2581  -13.8891 C.ar        1 G97      -0.0465
      2 CAE        19.4638    1.3980  -14.6629 C.ar        1 G97      -0.0569
      3 CAD        20.4455    1.9187  -15.5231 C.ar        1 G97      -0.0580
      4 CAF        21.7068    1.2992  -15.6052 C.ar        1 G97      -0.0569
      5 CAI        21.9801    0.1649  -14.8222 C.ar        1 G97      -0.0465
      6 CAW        21.0122   -0.3785  -13.9406 C.ar        1 G97       0.0141
      7 C2         21.3085   -1.4883  -13.1003 C.ar        1 G97       0.0921
      8 N1         22.5905   -1.8296  -12.8132 N.ar        1 G97      -0.2553
      9 N3         20.3306   -2.2433  -12.5358 N.ar        1 G97      -0.3009
     10 C4         20.5931   -3.2287  -11.6471 C.ar        1 G97       0.0255
     11 CAM        19.5176   -3.9596  -11.1096 C.ar        1 G97      -0.0253
     12 CAU        19.7358   -4.9397  -10.1169 C.ar        1 G97       0.0730
     13 NAQ        18.6496   -5.6743   -9.7149 N.am        1 G97      -0.2295
     14 CAT        18.6240   -6.8941   -9.1843 C.2         1 G97       0.2258
     15 OAB        19.6376   -7.5639   -9.0292 O.2         1 G97      -0.3745
     16 CAC        17.4284   -7.4757   -8.9390 C.2         1 G97       0.0150
     17 CAA        17.1416   -8.1501   -7.8158 C.2         1 G97      -0.0781
     18 CAK        21.0381   -5.0537   -9.5706 C.ar        1 G97      -0.0283
     19 CAL        22.1149   -4.3352  -10.1277 C.ar        1 G97      -0.0465
     20 C5         21.9319   -3.4924  -11.2454 C.ar        1 G97       0.0455
     21 C6         22.9573   -2.8107  -11.9496 C.ar        1 G97       0.1561
     22 NAR        24.3073   -2.9597  -11.9318 N.pl3       1 G97      -0.2206
     23 CAV        25.1203   -3.9269  -11.4580 C.2         1 G97       0.1818
     24 CAJ        24.9379   -5.2857  -11.2246 C.2         1 G97      -0.0280
     25 CAG        26.1643   -5.7662  -10.7884 C.2         1 G97      -0.0243
     26 NAS        27.0464   -4.7546  -10.8258 N.2         1 G97      -0.2412
     27 NAN        26.4257   -3.6944  -11.2382 N.pl3       1 G97      -0.2006
     28 H1         19.0103   -0.0904  -13.2598 H           1 G97       0.0660
     29 H2         18.5505    1.8488  -14.6011 H           1 G97       0.0628
     30 H3         20.2443    2.7527  -16.0841 H           1 G97       0.0649
     31 H4         22.4191    1.6795  -16.2296 H           1 G97       0.0628
     32 H5         22.9055   -0.2682  -14.9057 H           1 G97       0.0660
     33 H6         18.5673   -3.7813  -11.4531 H           1 G97       0.0447
     34 H7         17.7839   -5.2770   -9.9127 H           1 G97       0.2290
     35 H8         16.7127   -7.3908   -9.6256 H           1 G97       0.0698
     36 H9         16.2448   -8.5549   -7.7056 H           1 G97       0.0686
     37 H10        17.8011   -8.2474   -7.0778 H           1 G97       0.0686
     38 H11        21.2160   -5.6536   -8.7663 H           1 G97       0.0570
     39 H12        23.0248   -4.4045   -9.6712 H           1 G97       0.0666
     40 H13        24.7836   -2.2616  -12.4115 H           1 G97       0.2279
     41 H14        24.0780   -5.8335  -11.3521 H           1 G97       0.0216
     42 H15        26.3714   -6.7221  -10.4994 H           1 G97       0.0607
     43 H16        26.8396   -2.8303  -11.3585 H           1 G97       0.2521
@<TRIPOS>BOND
     1     1     2  ar
     2     1     6  ar
     3     2     3  ar
     4     3     4  ar
     5     4     5  ar
     6     5     6  ar
     7     6     7   1
     8     7     8  ar
     9     7     9  ar
    10     8    21  ar
    11     9    10  ar
    12    10    11  ar
    13    10    20  ar
    14    11    12  ar
    15    12    13   1
    16    12    18  ar
    17    13    14  am
    18    14    15   2
    19    14    16   1
    20    16    17   2
    21    18    19  ar
    22    19    20  ar
    23    20    21  ar
    24    21    22   1
    25    22    23   1
    26    23    24   2
    27    23    27   1
    28    24    25   1
    29    25    26   2
    30    26    27   1
    31     1    28   1
    32     2    29   1
    33     3    30   1
    34     4    31   1
    35     5    32   1
    36    11    33   1
    37    13    34   1
    38    16    35   1
    39    17    36   1
    40    17    37   1
    41    18    38   1
    42    19    39   1
    43    22    40   1
    44    24    41   1
    45    25    42   1
    46    27    43   1
@<TRIPOS>SUBSTRUCTURE
     1  G97      1

