@<TRIPOS>MOLECULE
3huc_ligand_094
    43    46
SMALL
GAST_HUCK
****
This file was generated by PARSER (from files_GN.cpp)

@<TRIPOS>ATOM
      1 CAH        22.1569    5.4158  -11.6236 C.ar        1 G97      -0.0465
      2 CAE        22.5275    6.4711  -12.4777 C.ar        1 G97      -0.0569
      3 CAD        22.0204    6.5292  -13.7866 C.ar        1 G97      -0.0580
      4 CAF        21.1382    5.5335  -14.2380 C.ar        1 G97      -0.0569
      5 CAI        20.7722    4.4748  -13.3844 C.ar        1 G97      -0.0465
      6 CAW        21.2758    4.3920  -12.0599 C.ar        1 G97       0.0141
      7 C2         20.9225    3.3096  -11.2016 C.ar        1 G97       0.0921
      8 N1         21.1696    3.3523   -9.8658 N.ar        1 G97      -0.2553
      9 N3         20.3499    2.1772  -11.6850 N.ar        1 G97      -0.3009
     10 C4         19.9913    1.1358  -10.8938 C.ar        1 G97       0.0255
     11 CAM        19.3758    0.0126  -11.4800 C.ar        1 G97      -0.0253
     12 CAU        18.9242   -1.0607  -10.6795 C.ar        1 G97       0.0730
     13 NAQ        18.3126   -2.1775  -11.1807 N.am        1 G97      -0.2295
     14 CAT        18.5765   -2.8668  -12.2864 C.2         1 G97       0.2258
     15 OAB        17.8404   -3.8168  -12.5096 O.2         1 G97      -0.3745
     16 CAC        19.6136   -2.6824  -13.1398 C.2         1 G97       0.0150
     17 CAA        20.8966   -2.6988  -12.7528 C.2         1 G97      -0.0781
     18 CAK        19.0282   -0.9432   -9.2793 C.ar        1 G97      -0.0283
     19 CAL        19.6540    0.1717   -8.6929 C.ar        1 G97      -0.0465
     20 C5         20.2030    1.2042   -9.4887 C.ar        1 G97       0.0455
     21 C6         20.8761    2.3560   -8.9910 C.ar        1 G97       0.1561
     22 NAR        21.3045    2.6359   -7.7339 N.pl3       1 G97      -0.2206
     23 CAV        21.6015    1.7972   -6.7113 C.2         1 G97       0.1818
     24 CAJ        22.1601    0.5254   -6.7412 C.2         1 G97      -0.0280
     25 CAG        22.3495    0.1661   -5.4175 C.2         1 G97      -0.0243
     26 NAS        21.9554    1.1915   -4.6459 N.2         1 G97      -0.2412
     27 NAN        21.5327    2.1461   -5.4167 N.pl3       1 G97      -0.2006
     28 H1         22.5528    5.3995  -10.6808 H           1 G97       0.0660
     29 H2         23.1686    7.1960  -12.1467 H           1 G97       0.0628
     30 H3         22.2895    7.2972  -14.4067 H           1 G97       0.0649
     31 H4         20.7643    5.5774  -15.1889 H           1 G97       0.0628
     32 H5         20.1279    3.7665  -13.7443 H           1 G97       0.0660
     33 H6         19.2289   -0.0073  -12.4915 H           1 G97       0.0447
     34 H7         17.6212   -2.5591  -10.6152 H           1 G97       0.2290
     35 H8         19.4127   -2.5909  -14.1101 H           1 G97       0.0698
     36 H9         21.1509   -2.8273  -11.8008 H           1 G97       0.0686
     37 H10        21.6204   -2.5849  -13.4232 H           1 G97       0.0686
     38 H11        18.6555   -1.6787   -8.6726 H           1 G97       0.0570
     39 H12        19.6636    0.2296   -7.6759 H           1 G97       0.0666
     40 H13        21.5482    3.5620   -7.5764 H           1 G97       0.2279
     41 H14        22.4027   -0.0278   -7.5654 H           1 G97       0.0216
     42 H15        22.7409   -0.7158   -5.0837 H           1 G97       0.0607
     43 H16        21.2099    3.0039   -5.0969 H           1 G97       0.2521
@<TRIPOS>BOND
     1     1     2  ar
     2     1     6  ar
     3     2     3  ar
     4     3     4  ar
     5     4     5  ar
     6     5     6  ar
     7     6     7   1
     8     7     8  ar
     9     7     9  ar
    10     8    21  ar
    11     9    10  ar
    12    10    11  ar
    13    10    20  ar
    14    11    12  ar
    15    12    13   1
    16    12    18  ar
    17    13    14  am
    18    14    15   2
    19    14    16   1
    20    16    17   2
    21    18    19  ar
    22    19    20  ar
    23    20    21  ar
    24    21    22   1
    25    22    23   1
    26    23    24   2
    27    23    27   1
    28    24    25   1
    29    25    26   2
    30    26    27   1
    31     1    28   1
    32     2    29   1
    33     3    30   1
    34     4    31   1
    35     5    32   1
    36    11    33   1
    37    13    34   1
    38    16    35   1
    39    17    36   1
    40    17    37   1
    41    18    38   1
    42    19    39   1
    43    22    40   1
    44    24    41   1
    45    25    42   1
    46    27    43   1
@<TRIPOS>SUBSTRUCTURE
     1  G97      1

