@<TRIPOS>MOLECULE
3huc_ligand_047
    43    46
SMALL
GAST_HUCK
****
This file was generated by PARSER (from files_GN.cpp)

@<TRIPOS>ATOM
      1 CAH        21.0467    1.4198  -16.5034 C.ar        1 G97      -0.0465
      2 CAE        21.4453    0.1336  -16.9089 C.ar        1 G97      -0.0569
      3 CAD        21.8094   -0.8294  -15.9521 C.ar        1 G97      -0.0580
      4 CAF        21.7945   -0.5018  -14.5859 C.ar        1 G97      -0.0569
      5 CAI        21.4023    0.7870  -14.1722 C.ar        1 G97      -0.0465
      6 CAW        21.0231    1.7541  -15.1306 C.ar        1 G97       0.0141
      7 C2         20.5558    3.0088  -14.7199 C.ar        1 G97       0.0921
      8 N1         19.2389    3.1690  -14.4582 N.ar        1 G97      -0.2553
      9 N3         21.3892    4.0606  -14.5444 N.ar        1 G97      -0.3009
     10 C4         20.9370    5.2662  -14.1133 C.ar        1 G97       0.0255
     11 CAM        21.8488    6.3294  -13.9435 C.ar        1 G97      -0.0253
     12 CAU        21.4311    7.5865  -13.4624 C.ar        1 G97       0.0730
     13 NAQ        22.3917    8.5593  -13.3284 N.am        1 G97      -0.2295
     14 CAT        22.3843    9.6834  -12.6142 C.2         1 G97       0.2258
     15 OAB        21.4777    9.9728  -11.8435 O.2         1 G97      -0.3745
     16 CAC        23.4485   10.5149  -12.6326 C.2         1 G97       0.0150
     17 CAA        24.0595   10.9181  -13.7592 C.2         1 G97      -0.0781
     18 CAK        20.0508    7.7680  -13.1972 C.ar        1 G97      -0.0283
     19 CAL        19.1294    6.7170  -13.3653 C.ar        1 G97      -0.0465
     20 C5         19.5568    5.4493  -13.8230 C.ar        1 G97       0.0455
     21 C6         18.6988    4.3343  -14.0134 C.ar        1 G97       0.1561
     22 NAR        17.3689    4.4148  -13.7616 N.pl3       1 G97      -0.2206
     23 CAV        16.4260    3.4381  -13.8597 C.2         1 G97       0.1818
     24 CAJ        16.4954    2.0573  -14.0331 C.2         1 G97      -0.0280
     25 CAG        15.1848    1.6065  -14.0530 C.2         1 G97      -0.0243
     26 NAS        14.3822    2.6661  -13.8822 N.2         1 G97      -0.2412
     27 NAN        15.1177    3.7278  -13.7685 N.pl3       1 G97      -0.2006
     28 H1         20.7622    2.1039  -17.2114 H           1 G97       0.0660
     29 H2         21.4578   -0.1068  -17.9047 H           1 G97       0.0628
     30 H3         22.0767   -1.7687  -16.2488 H           1 G97       0.0649
     31 H4         22.0586   -1.2016  -13.8887 H           1 G97       0.0628
     32 H5         21.3802    1.0057  -13.1722 H           1 G97       0.0660
     33 H6         22.8360    6.1786  -14.1636 H           1 G97       0.0447
     34 H7         23.2227    8.3776  -13.7939 H           1 G97       0.2290
     35 H8         23.7750   10.8972  -11.7703 H           1 G97       0.0698
     36 H9         24.8189   11.5557  -13.7147 H           1 G97       0.0686
     37 H10        23.7636   10.5945  -14.6528 H           1 G97       0.0686
     38 H11        19.6858    8.6768  -12.9039 H           1 G97       0.0570
     39 H12        18.1453    6.8951  -13.1518 H           1 G97       0.0666
     40 H13        17.0312    5.2797  -13.4883 H           1 G97       0.2279
     41 H14        17.3248    1.4657  -14.1177 H           1 G97       0.0216
     42 H15        14.8814    0.6387  -14.1629 H           1 G97       0.0607
     43 H16        14.7667    4.6229  -13.6329 H           1 G97       0.2521
@<TRIPOS>BOND
     1     1     2  ar
     2     1     6  ar
     3     2     3  ar
     4     3     4  ar
     5     4     5  ar
     6     5     6  ar
     7     6     7   1
     8     7     8  ar
     9     7     9  ar
    10     8    21  ar
    11     9    10  ar
    12    10    11  ar
    13    10    20  ar
    14    11    12  ar
    15    12    13   1
    16    12    18  ar
    17    13    14  am
    18    14    15   2
    19    14    16   1
    20    16    17   2
    21    18    19  ar
    22    19    20  ar
    23    20    21  ar
    24    21    22   1
    25    22    23   1
    26    23    24   2
    27    23    27   1
    28    24    25   1
    29    25    26   2
    30    26    27   1
    31     1    28   1
    32     2    29   1
    33     3    30   1
    34     4    31   1
    35     5    32   1
    36    11    33   1
    37    13    34   1
    38    16    35   1
    39    17    36   1
    40    17    37   1
    41    18    38   1
    42    19    39   1
    43    22    40   1
    44    24    41   1
    45    25    42   1
    46    27    43   1
@<TRIPOS>SUBSTRUCTURE
     1  G97      1

