@<TRIPOS>MOLECULE
3huc_ligand_086
    43    46
SMALL
GAST_HUCK
****
This file was generated by PARSER (from files_GN.cpp)

@<TRIPOS>ATOM
      1 CAH        21.8795    4.8446  -11.6486 C.ar        1 G97      -0.0465
      2 CAE        22.3447    6.0885  -12.1152 C.ar        1 G97      -0.0569
      3 CAD        21.9794    6.5434  -13.3947 C.ar        1 G97      -0.0580
      4 CAF        21.1334    5.7598  -14.1987 C.ar        1 G97      -0.0569
      5 CAI        20.6620    4.5225  -13.7259 C.ar        1 G97      -0.0465
      6 CAW        21.0400    4.0265  -12.4511 C.ar        1 G97       0.0141
      7 C2         20.6051    2.7477  -12.0034 C.ar        1 G97       0.0921
      8 N1         21.2917    2.0513  -11.0587 N.ar        1 G97      -0.2553
      9 N3         19.5111    2.1528  -12.5368 N.ar        1 G97      -0.3009
     10 C4         19.0641    0.9421  -12.1251 C.ar        1 G97       0.0255
     11 CAM        17.8887    0.4294  -12.7039 C.ar        1 G97      -0.0253
     12 CAU        17.3447   -0.7919  -12.2605 C.ar        1 G97       0.0730
     13 NAQ        16.1680   -1.1931  -12.8355 N.am        1 G97      -0.2295
     14 CAT        15.6743   -2.4145  -12.9962 C.2         1 G97       0.2258
     15 OAB        16.3112   -3.4141  -12.6814 O.2         1 G97      -0.3745
     16 CAC        14.4673   -2.5435  -13.6027 C.2         1 G97       0.0150
     17 CAA        14.1762   -3.4525  -14.5422 C.2         1 G97      -0.0781
     18 CAK        17.9737   -1.4644  -11.1881 C.ar        1 G97      -0.0283
     19 CAL        19.1416   -0.9424  -10.5990 C.ar        1 G97      -0.0465
     20 C5         19.7507    0.2307  -11.0998 C.ar        1 G97       0.0455
     21 C6         20.9535    0.8156  -10.6077 C.ar        1 G97       0.1561
     22 NAR        21.8675    0.3399   -9.7249 N.pl3       1 G97      -0.2206
     23 CAV        22.1334   -0.9211   -9.3008 C.2         1 G97       0.1818
     24 CAJ        22.0342   -2.1467   -9.9508 C.2         1 G97      -0.0280
     25 CAG        22.5473   -3.0893   -9.0712 C.2         1 G97      -0.0243
     26 NAS        22.9927   -2.4411   -7.9773 N.2         1 G97      -0.2412
     27 NAN        22.7584   -1.1761   -8.1329 N.pl3       1 G97      -0.2006
     28 H1         22.1727    4.5408  -10.7165 H           1 G97       0.0660
     29 H2         22.9573    6.6653  -11.5263 H           1 G97       0.0628
     30 H3         22.3291    7.4406  -13.7401 H           1 G97       0.0649
     31 H4         20.8643    6.0886  -15.1284 H           1 G97       0.0628
     32 H5         20.0563    3.9721  -14.3396 H           1 G97       0.0660
     33 H6         17.4153    0.9557  -13.4483 H           1 G97       0.0447
     34 H7         15.6392   -0.4749  -13.2296 H           1 G97       0.2290
     35 H8         13.7575   -1.8870  -13.3621 H           1 G97       0.0698
     36 H9         13.2770   -3.4548  -14.9637 H           1 G97       0.0686
     37 H10        14.8492   -4.1202  -14.8480 H           1 G97       0.0686
     38 H11        17.5617   -2.3067  -10.7846 H           1 G97       0.0570
     39 H12        19.5094   -1.4145   -9.7783 H           1 G97       0.0666
     40 H13        22.4945    1.0048   -9.4047 H           1 G97       0.2279
     41 H14        21.6713   -2.3283  -10.8871 H           1 G97       0.0216
     42 H15        22.6171   -4.0957   -9.2349 H           1 G97       0.0607
     43 H16        23.0036   -0.4972   -7.4798 H           1 G97       0.2521
@<TRIPOS>BOND
     1     1     2  ar
     2     1     6  ar
     3     2     3  ar
     4     3     4  ar
     5     4     5  ar
     6     5     6  ar
     7     6     7   1
     8     7     8  ar
     9     7     9  ar
    10     8    21  ar
    11     9    10  ar
    12    10    11  ar
    13    10    20  ar
    14    11    12  ar
    15    12    13   1
    16    12    18  ar
    17    13    14  am
    18    14    15   2
    19    14    16   1
    20    16    17   2
    21    18    19  ar
    22    19    20  ar
    23    20    21  ar
    24    21    22   1
    25    22    23   1
    26    23    24   2
    27    23    27   1
    28    24    25   1
    29    25    26   2
    30    26    27   1
    31     1    28   1
    32     2    29   1
    33     3    30   1
    34     4    31   1
    35     5    32   1
    36    11    33   1
    37    13    34   1
    38    16    35   1
    39    17    36   1
    40    17    37   1
    41    18    38   1
    42    19    39   1
    43    22    40   1
    44    24    41   1
    45    25    42   1
    46    27    43   1
@<TRIPOS>SUBSTRUCTURE
     1  G97      1

