@<TRIPOS>MOLECULE
3huc_ligand_034
    43    46
SMALL
GAST_HUCK
****
This file was generated by PARSER (from files_GN.cpp)

@<TRIPOS>ATOM
      1 CAH        19.6279   -0.3178  -10.5146 C.ar        1 G97      -0.0465
      2 CAE        19.5889    0.5204   -9.3849 C.ar        1 G97      -0.0569
      3 CAD        20.7683    0.7977   -8.6729 C.ar        1 G97      -0.0580
      4 CAF        21.9935    0.2635   -9.1099 C.ar        1 G97      -0.0569
      5 CAI        22.0384   -0.5604  -10.2520 C.ar        1 G97      -0.0465
      6 CAW        20.8506   -0.8797  -10.9518 C.ar        1 G97       0.0141
      7 C2         20.8702   -1.7698  -12.0433 C.ar        1 G97       0.0921
      8 N1         21.1801   -1.3468  -13.2930 N.ar        1 G97      -0.2553
      9 N3         20.5489   -3.0746  -11.8664 N.ar        1 G97      -0.3009
     10 C4         20.5566   -3.9672  -12.8868 C.ar        1 G97       0.0255
     11 CAM        20.2175   -5.3087  -12.6210 C.ar        1 G97      -0.0253
     12 CAU        20.1980   -6.2712  -13.6555 C.ar        1 G97       0.0730
     13 NAQ        19.8710   -7.5959  -13.4848 N.am        1 G97      -0.2295
     14 CAT        19.1116   -8.1797  -12.5579 C.2         1 G97       0.2258
     15 OAB        18.5464   -7.5618  -11.6642 O.2         1 G97      -0.3745
     16 CAC        18.9400   -9.5169  -12.6203 C.2         1 G97       0.0150
     17 CAA        17.7513  -10.1332  -12.5520 C.2         1 G97      -0.0781
     18 CAK        20.5813   -5.8583  -14.9507 C.ar        1 G97      -0.0283
     19 CAL        20.9282   -4.5177  -15.2226 C.ar        1 G97      -0.0465
     20 C5         20.8996   -3.5410  -14.2001 C.ar        1 G97       0.0455
     21 C6         21.1906   -2.1600  -14.3867 C.ar        1 G97       0.1561
     22 NAR        21.4427   -1.6386  -15.6177 N.pl3       1 G97      -0.2206
     23 CAV        21.7166   -0.3364  -15.9257 C.2         1 G97       0.1818
     24 CAJ        22.0223    0.1154  -17.2009 C.2         1 G97      -0.0280
     25 CAG        22.2781    1.4711  -17.0782 C.2         1 G97      -0.0243
     26 NAS        22.1200    1.8100  -15.7900 N.2         1 G97      -0.2412
     27 NAN        21.7883    0.7463  -15.1267 N.pl3       1 G97      -0.2006
     28 H1         18.7599   -0.5058  -11.0217 H           1 G97       0.0660
     29 H2         18.6995    0.9197   -9.0768 H           1 G97       0.0628
     30 H3         20.7333    1.3856   -7.8362 H           1 G97       0.0649
     31 H4         22.8508    0.4644   -8.5896 H           1 G97       0.0628
     32 H5         22.9351   -0.9554  -10.5437 H           1 G97       0.0660
     33 H6         19.9999   -5.5782  -11.6595 H           1 G97       0.0447
     34 H7         20.1923   -8.1893  -14.1836 H           1 G97       0.2290
     35 H8         19.7451  -10.0819  -12.7547 H           1 G97       0.0698
     36 H9         17.7028  -11.1219  -12.6298 H           1 G97       0.0686
     37 H10        16.9050   -9.6227  -12.4537 H           1 G97       0.0686
     38 H11        20.5996   -6.5367  -15.7194 H           1 G97       0.0570
     39 H12        21.2028   -4.2668  -16.1757 H           1 G97       0.0666
     40 H13        21.4154   -2.2524  -16.3689 H           1 G97       0.2279
     41 H14        22.0778   -0.4385  -18.0575 H           1 G97       0.0216
     42 H15        22.5523    2.1038  -17.8319 H           1 G97       0.0607
     43 H16        21.6293    0.7401  -14.1697 H           1 G97       0.2521
@<TRIPOS>BOND
     1     1     2  ar
     2     1     6  ar
     3     2     3  ar
     4     3     4  ar
     5     4     5  ar
     6     5     6  ar
     7     6     7   1
     8     7     8  ar
     9     7     9  ar
    10     8    21  ar
    11     9    10  ar
    12    10    11  ar
    13    10    20  ar
    14    11    12  ar
    15    12    13   1
    16    12    18  ar
    17    13    14  am
    18    14    15   2
    19    14    16   1
    20    16    17   2
    21    18    19  ar
    22    19    20  ar
    23    20    21  ar
    24    21    22   1
    25    22    23   1
    26    23    24   2
    27    23    27   1
    28    24    25   1
    29    25    26   2
    30    26    27   1
    31     1    28   1
    32     2    29   1
    33     3    30   1
    34     4    31   1
    35     5    32   1
    36    11    33   1
    37    13    34   1
    38    16    35   1
    39    17    36   1
    40    17    37   1
    41    18    38   1
    42    19    39   1
    43    22    40   1
    44    24    41   1
    45    25    42   1
    46    27    43   1
@<TRIPOS>SUBSTRUCTURE
     1  G97      1

