@<TRIPOS>MOLECULE
3huc_ligand_022
    43    46
SMALL
GAST_HUCK
****
This file was generated by PARSER (from files_GN.cpp)

@<TRIPOS>ATOM
      1 CAH        22.0669    3.6239   -9.7976 C.ar        1 G97      -0.0465
      2 CAE        21.8889    4.8995   -9.2297 C.ar        1 G97      -0.0569
      3 CAD        21.2119    5.0369   -8.0055 C.ar        1 G97      -0.0580
      4 CAF        20.7247    3.8974   -7.3400 C.ar        1 G97      -0.0569
      5 CAI        20.9114    2.6187   -7.9024 C.ar        1 G97      -0.0465
      6 CAW        21.5803    2.4738   -9.1386 C.ar        1 G97       0.0141
      7 C2         21.6963    1.2134   -9.7331 C.ar        1 G97       0.0921
      8 N1         20.8416    0.8527  -10.7217 N.ar        1 G97      -0.2553
      9 N3         22.6369    0.3287   -9.3244 N.ar        1 G97      -0.3009
     10 C4         22.7427   -0.9006   -9.8871 C.ar        1 G97       0.0255
     11 CAM        23.7554   -1.7714   -9.4341 C.ar        1 G97      -0.0253
     12 CAU        23.9067   -3.0668   -9.9831 C.ar        1 G97       0.0730
     13 NAQ        24.8791   -3.9751   -9.6218 N.am        1 G97      -0.2295
     14 CAT        25.6546   -4.0382   -8.5417 C.2         1 G97       0.2258
     15 OAB        25.5217   -3.2586   -7.6067 O.2         1 G97      -0.3745
     16 CAC        26.5226   -5.0691   -8.4023 C.2         1 G97       0.0150
     17 CAA        27.7180   -4.9672   -7.8051 C.2         1 G97      -0.0781
     18 CAK        23.0223   -3.4512  -11.0187 C.ar        1 G97      -0.0283
     19 CAL        22.0085   -2.5850  -11.4802 C.ar        1 G97      -0.0465
     20 C5         21.8533   -1.2971  -10.9246 C.ar        1 G97       0.0455
     21 C6         20.8658   -0.3591  -11.3387 C.ar        1 G97       0.1561
     22 NAR        19.9610   -0.6501  -12.3124 N.pl3       1 G97      -0.2206
     23 CAV        18.9484    0.1245  -12.8107 C.2         1 G97       0.1818
     24 CAJ        18.5182    1.4213  -12.5376 C.2         1 G97      -0.0280
     25 CAG        17.4362    1.6532  -13.3673 C.2         1 G97      -0.0243
     26 NAS        17.2258    0.5494  -14.0994 N.2         1 G97      -0.2412
     27 NAN        18.1159   -0.3350  -13.7657 N.pl3       1 G97      -0.2006
     28 H1         22.5551    3.5413  -10.6957 H           1 G97       0.0660
     29 H2         22.2471    5.7271   -9.7119 H           1 G97       0.0628
     30 H3         21.0732    5.9639   -7.5998 H           1 G97       0.0649
     31 H4         20.2245    3.9981   -6.4552 H           1 G97       0.0628
     32 H5         20.5364    1.7992   -7.4129 H           1 G97       0.0660
     33 H6         24.3956   -1.4287   -8.7160 H           1 G97       0.0447
     34 H7         24.9964   -4.7050  -10.2527 H           1 G97       0.2290
     35 H8         26.2550   -5.9598   -8.7597 H           1 G97       0.0698
     36 H9         28.3020   -5.7690   -7.7071 H           1 G97       0.0686
     37 H10        28.0533   -4.1013   -7.4556 H           1 G97       0.0686
     38 H11        23.1067   -4.3773  -11.4459 H           1 G97       0.0570
     39 H12        21.3964   -2.9140  -12.2284 H           1 G97       0.0666
     40 H13        20.0327   -1.5292  -12.7080 H           1 G97       0.2279
     41 H14        18.8949    2.0950  -11.8716 H           1 G97       0.0216
     42 H15        16.8917    2.5156  -13.4141 H           1 G97       0.0607
     43 H16        18.1537   -1.2214  -14.1682 H           1 G97       0.2521
@<TRIPOS>BOND
     1     1     2  ar
     2     1     6  ar
     3     2     3  ar
     4     3     4  ar
     5     4     5  ar
     6     5     6  ar
     7     6     7   1
     8     7     8  ar
     9     7     9  ar
    10     8    21  ar
    11     9    10  ar
    12    10    11  ar
    13    10    20  ar
    14    11    12  ar
    15    12    13   1
    16    12    18  ar
    17    13    14  am
    18    14    15   2
    19    14    16   1
    20    16    17   2
    21    18    19  ar
    22    19    20  ar
    23    20    21  ar
    24    21    22   1
    25    22    23   1
    26    23    24   2
    27    23    27   1
    28    24    25   1
    29    25    26   2
    30    26    27   1
    31     1    28   1
    32     2    29   1
    33     3    30   1
    34     4    31   1
    35     5    32   1
    36    11    33   1
    37    13    34   1
    38    16    35   1
    39    17    36   1
    40    17    37   1
    41    18    38   1
    42    19    39   1
    43    22    40   1
    44    24    41   1
    45    25    42   1
    46    27    43   1
@<TRIPOS>SUBSTRUCTURE
     1  G97      1

