@<TRIPOS>MOLECULE
3huc_ligand_058
    43    46
SMALL
GAST_HUCK
****
This file was generated by PARSER (from files_GN.cpp)

@<TRIPOS>ATOM
      1 CAH        20.0408    2.6133  -11.9552 C.ar        1 G97      -0.0465
      2 CAE        19.3728    3.5602  -12.7471 C.ar        1 G97      -0.0569
      3 CAD        19.0673    3.2697  -14.0843 C.ar        1 G97      -0.0580
      4 CAF        19.4116    2.0193  -14.6203 C.ar        1 G97      -0.0569
      5 CAI        20.0764    1.0719  -13.8217 C.ar        1 G97      -0.0465
      6 CAW        20.4306    1.3530  -12.4843 C.ar        1 G97       0.0141
      7 C2         21.1784    0.4309  -11.6936 C.ar        1 G97       0.0921
      8 N1         21.3363   -0.8681  -12.0592 N.ar        1 G97      -0.2553
      9 N3         21.7653    0.7993  -10.5332 N.ar        1 G97      -0.3009
     10 C4         22.5479   -0.0240   -9.7915 C.ar        1 G97       0.0255
     11 CAM        23.1251    0.4479   -8.5982 C.ar        1 G97      -0.0253
     12 CAU        24.0178   -0.3577   -7.8565 C.ar        1 G97       0.0730
     13 NAQ        24.5565    0.0276   -6.6579 N.am        1 G97      -0.2295
     14 CAT        23.9108    0.5424   -5.6113 C.2         1 G97       0.2258
     15 OAB        22.6959    0.7564   -5.6520 O.2         1 G97      -0.3745
     16 CAC        24.5901    0.7226   -4.4538 C.2         1 G97       0.0150
     17 CAA        24.2524    0.1419   -3.2925 C.2         1 G97      -0.0781
     18 CAK        24.4200   -1.5957   -8.4034 C.ar        1 G97      -0.0283
     19 CAL        23.8072   -2.0877   -9.5800 C.ar        1 G97      -0.0465
     20 C5         22.7974   -1.3478  -10.2420 C.ar        1 G97       0.0455
     21 C6         22.0744   -1.7838  -11.3869 C.ar        1 G97       0.1561
     22 NAR        21.9157   -3.0092  -11.9619 N.pl3       1 G97      -0.2206
     23 CAV        22.0698   -4.2626  -11.4731 C.2         1 G97       0.1818
     24 CAJ        22.1586   -4.7677  -10.1719 C.2         1 G97      -0.0280
     25 CAG        22.1603   -6.1451  -10.2994 C.2         1 G97      -0.0243
     26 NAS        22.0259   -6.4673  -11.6052 N.2         1 G97      -0.2412
     27 NAN        21.9740   -5.3558  -12.2724 N.pl3       1 G97      -0.2006
     28 H1         20.2484    2.8695  -10.9835 H           1 G97       0.0660
     29 H2         19.1100    4.4684  -12.3581 H           1 G97       0.0628
     30 H3         18.6068    3.9620  -14.6749 H           1 G97       0.0649
     31 H4         19.1861    1.7984  -15.5876 H           1 G97       0.0628
     32 H5         20.3053    0.1624  -14.2335 H           1 G97       0.0660
     33 H6         22.9034    1.4002   -8.2888 H           1 G97       0.0447
     34 H7         25.4874   -0.2328   -6.5208 H           1 G97       0.2290
     35 H8         25.4069    1.2902   -4.4882 H           1 G97       0.0698
     36 H9         24.8252    0.2788   -2.4951 H           1 G97       0.0686
     37 H10        23.4525   -0.4456   -3.2257 H           1 G97       0.0686
     38 H11        25.1030   -2.1688   -7.9028 H           1 G97       0.0570
     39 H12        24.1522   -2.9699   -9.9614 H           1 G97       0.0666
     40 H13        21.4758   -3.0005  -12.8330 H           1 G97       0.2279
     41 H14        22.1708   -4.2230   -9.2937 H           1 G97       0.0216
     42 H15        22.2183   -6.8164   -9.5190 H           1 G97       0.0607
     43 H16        21.8476   -5.3190  -13.2363 H           1 G97       0.2521
@<TRIPOS>BOND
     1     1     2  ar
     2     1     6  ar
     3     2     3  ar
     4     3     4  ar
     5     4     5  ar
     6     5     6  ar
     7     6     7   1
     8     7     8  ar
     9     7     9  ar
    10     8    21  ar
    11     9    10  ar
    12    10    11  ar
    13    10    20  ar
    14    11    12  ar
    15    12    13   1
    16    12    18  ar
    17    13    14  am
    18    14    15   2
    19    14    16   1
    20    16    17   2
    21    18    19  ar
    22    19    20  ar
    23    20    21  ar
    24    21    22   1
    25    22    23   1
    26    23    24   2
    27    23    27   1
    28    24    25   1
    29    25    26   2
    30    26    27   1
    31     1    28   1
    32     2    29   1
    33     3    30   1
    34     4    31   1
    35     5    32   1
    36    11    33   1
    37    13    34   1
    38    16    35   1
    39    17    36   1
    40    17    37   1
    41    18    38   1
    42    19    39   1
    43    22    40   1
    44    24    41   1
    45    25    42   1
    46    27    43   1
@<TRIPOS>SUBSTRUCTURE
     1  G97      1

