@<TRIPOS>MOLECULE
3huc_ligand_050
    43    46
SMALL
GAST_HUCK
****
This file was generated by PARSER (from files_GN.cpp)

@<TRIPOS>ATOM
      1 CAH        21.4415   -3.7597  -13.3309 C.ar        1 G97      -0.0465
      2 CAE        21.1187   -4.4190  -14.5340 C.ar        1 G97      -0.0569
      3 CAD        21.0089   -3.6911  -15.7344 C.ar        1 G97      -0.0580
      4 CAF        21.1717   -2.2975  -15.7121 C.ar        1 G97      -0.0569
      5 CAI        21.4425   -1.6297  -14.5049 C.ar        1 G97      -0.0465
      6 CAW        21.5956   -2.3488  -13.2887 C.ar        1 G97       0.0141
      7 C2         21.8876   -1.6665  -12.0799 C.ar        1 G97       0.0921
      8 N1         22.9787   -1.9734  -11.3406 N.ar        1 G97      -0.2553
      9 N3         21.0816   -0.6758  -11.6168 N.ar        1 G97      -0.3009
     10 C4         21.3491    0.0126  -10.4806 C.ar        1 G97       0.0255
     11 CAM        20.4387    1.0052  -10.0717 C.ar        1 G97      -0.0253
     12 CAU        20.6837    1.7908   -8.9212 C.ar        1 G97       0.0730
     13 NAQ        19.8508    2.7525   -8.4206 N.am        1 G97      -0.2295
     14 CAT        18.5413    2.9103   -8.5800 C.2         1 G97       0.2258
     15 OAB        17.8463    2.1439   -9.2341 O.2         1 G97      -0.3745
     16 CAC        17.9149    3.9317   -7.9701 C.2         1 G97       0.0150
     17 CAA        17.7196    4.0022   -6.6440 C.2         1 G97      -0.0781
     18 CAK        21.9118    1.6192   -8.2556 C.ar        1 G97      -0.0283
     19 CAL        22.8321    0.6361   -8.6714 C.ar        1 G97      -0.0465
     20 C5         22.5389   -0.2436   -9.7376 C.ar        1 G97       0.0455
     21 C6         23.3489   -1.3281  -10.1938 C.ar        1 G97       0.1561
     22 NAR        24.4936   -1.8827   -9.7268 N.pl3       1 G97      -0.2206
     23 CAV        25.2839   -1.7362   -8.6400 C.2         1 G97       0.1818
     24 CAJ        26.5494   -2.3215   -8.6557 C.2         1 G97      -0.0280
     25 CAG        27.1300   -2.0466   -7.4347 C.2         1 G97      -0.0243
     26 NAS        26.2597   -1.3166   -6.7041 N.2         1 G97      -0.2412
     27 NAN        25.1789   -1.1716   -7.4033 N.pl3       1 G97      -0.2006
     28 H1         21.5294   -4.3197  -12.4782 H           1 G97       0.0660
     29 H2         20.9784   -5.4284  -14.5486 H           1 G97       0.0628
     30 H3         20.8176   -4.1771  -16.6139 H           1 G97       0.0649
     31 H4         21.1060   -1.7659  -16.5789 H           1 G97       0.0628
     32 H5         21.5374   -0.6109  -14.5183 H           1 G97       0.0660
     33 H6         19.6036    1.1626  -10.6383 H           1 G97       0.0447
     34 H7         20.2686    3.3819   -7.8133 H           1 G97       0.2290
     35 H8         17.5167    4.6416   -8.5416 H           1 G97       0.0698
     36 H9         17.1882    4.7462   -6.2600 H           1 G97       0.0686
     37 H10        18.0745    3.3065   -6.0293 H           1 G97       0.0686
     38 H11        22.1509    2.2176   -7.4559 H           1 G97       0.0570
     39 H12        23.7322    0.6167   -8.2157 H           1 G97       0.0666
     40 H13        24.8413   -2.5460  -10.3424 H           1 G97       0.2279
     41 H14        26.9778   -2.8472   -9.4166 H           1 G97       0.0216
     42 H15        28.0588   -2.3117   -7.1443 H           1 G97       0.0607
     43 H16        24.4018   -0.7227   -7.0326 H           1 G97       0.2521
@<TRIPOS>BOND
     1     1     2  ar
     2     1     6  ar
     3     2     3  ar
     4     3     4  ar
     5     4     5  ar
     6     5     6  ar
     7     6     7   1
     8     7     8  ar
     9     7     9  ar
    10     8    21  ar
    11     9    10  ar
    12    10    11  ar
    13    10    20  ar
    14    11    12  ar
    15    12    13   1
    16    12    18  ar
    17    13    14  am
    18    14    15   2
    19    14    16   1
    20    16    17   2
    21    18    19  ar
    22    19    20  ar
    23    20    21  ar
    24    21    22   1
    25    22    23   1
    26    23    24   2
    27    23    27   1
    28    24    25   1
    29    25    26   2
    30    26    27   1
    31     1    28   1
    32     2    29   1
    33     3    30   1
    34     4    31   1
    35     5    32   1
    36    11    33   1
    37    13    34   1
    38    16    35   1
    39    17    36   1
    40    17    37   1
    41    18    38   1
    42    19    39   1
    43    22    40   1
    44    24    41   1
    45    25    42   1
    46    27    43   1
@<TRIPOS>SUBSTRUCTURE
     1  G97      1

