@<TRIPOS>MOLECULE
3huc_ligand_033
    43    46
SMALL
GAST_HUCK
****
This file was generated by PARSER (from files_GN.cpp)

@<TRIPOS>ATOM
      1 CAH        21.2945   -1.8316  -14.3981 C.ar        1 G97      -0.0465
      2 CAE        21.0592   -2.1673  -15.7455 C.ar        1 G97      -0.0569
      3 CAD        20.9508   -3.5170  -16.1271 C.ar        1 G97      -0.0580
      4 CAF        21.0816   -4.5324  -15.1623 C.ar        1 G97      -0.0569
      5 CAI        21.3207   -4.2014  -13.8147 C.ar        1 G97      -0.0465
      6 CAW        21.4238   -2.8476  -13.4239 C.ar        1 G97       0.0141
      7 C2         21.6519   -2.5132  -12.0809 C.ar        1 G97       0.0921
      8 N1         20.6120   -2.3113  -11.2362 N.ar        1 G97      -0.2553
      9 N3         22.9150   -2.3678  -11.6165 N.ar        1 G97      -0.3009
     10 C4         23.1637   -2.0199  -10.3289 C.ar        1 G97       0.0255
     11 CAM        24.4981   -1.8781   -9.9009 C.ar        1 G97      -0.0253
     12 CAU        24.8030   -1.4954   -8.5770 C.ar        1 G97       0.0730
     13 NAQ        26.1307   -1.3407   -8.2692 N.am        1 G97      -0.2295
     14 CAT        26.7382   -1.3835   -7.0888 C.2         1 G97       0.2258
     15 OAB        26.1682   -1.6905   -6.0515 O.2         1 G97      -0.3745
     16 CAC        28.0741   -1.2428   -7.0324 C.2         1 G97       0.0150
     17 CAA        28.6889   -0.0574   -7.1228 C.2         1 G97      -0.0781
     18 CAK        23.7293   -1.2466   -7.6891 C.ar        1 G97      -0.0283
     19 CAL        22.3930   -1.4046   -8.1019 C.ar        1 G97      -0.0465
     20 C5         22.0862   -1.7903   -9.4283 C.ar        1 G97       0.0455
     21 C6         20.7677   -1.9604   -9.9313 C.ar        1 G97       0.1561
     22 NAR        19.6820   -1.7640   -9.1391 N.pl3       1 G97      -0.2206
     23 CAV        18.3747   -1.9498   -9.4598 C.2         1 G97       0.1818
     24 CAJ        17.3209   -1.6210   -8.6220 C.2         1 G97      -0.0280
     25 CAG        16.1683   -1.9880   -9.2982 C.2         1 G97      -0.0243
     26 NAS        16.5271   -2.5148  -10.4795 N.2         1 G97      -0.2412
     27 NAN        17.8210   -2.4871  -10.5635 N.pl3       1 G97      -0.2006
     28 H1         21.3702   -0.8448  -14.1356 H           1 G97       0.0660
     29 H2         20.9657   -1.4301  -16.4467 H           1 G97       0.0628
     30 H3         20.7774   -3.7605  -17.1065 H           1 G97       0.0649
     31 H4         21.0099   -5.5128  -15.4405 H           1 G97       0.0628
     32 H5         21.4189   -4.9523  -13.1259 H           1 G97       0.0660
     33 H6         25.2552   -2.0522  -10.5680 H           1 G97       0.0447
     34 H7         26.7212   -1.2282   -9.0357 H           1 G97       0.2290
     35 H8         28.6268   -2.0610   -6.9172 H           1 G97       0.0698
     36 H9         29.6792   -0.0101   -7.0887 H           1 G97       0.0686
     37 H10        28.1799    0.7908   -7.2160 H           1 G97       0.0686
     38 H11        23.9028   -0.9185   -6.7385 H           1 G97       0.0570
     39 H12        21.6509   -1.2167   -7.4232 H           1 G97       0.0666
     40 H13        19.8494   -1.4604   -8.2319 H           1 G97       0.2279
     41 H14        17.3773   -1.1969   -7.6944 H           1 G97       0.0216
     42 H15        15.2116   -1.8838   -8.9567 H           1 G97       0.0607
     43 H16        18.3207   -2.8258  -11.3229 H           1 G97       0.2521
@<TRIPOS>BOND
     1     1     2  ar
     2     1     6  ar
     3     2     3  ar
     4     3     4  ar
     5     4     5  ar
     6     5     6  ar
     7     6     7   1
     8     7     8  ar
     9     7     9  ar
    10     8    21  ar
    11     9    10  ar
    12    10    11  ar
    13    10    20  ar
    14    11    12  ar
    15    12    13   1
    16    12    18  ar
    17    13    14  am
    18    14    15   2
    19    14    16   1
    20    16    17   2
    21    18    19  ar
    22    19    20  ar
    23    20    21  ar
    24    21    22   1
    25    22    23   1
    26    23    24   2
    27    23    27   1
    28    24    25   1
    29    25    26   2
    30    26    27   1
    31     1    28   1
    32     2    29   1
    33     3    30   1
    34     4    31   1
    35     5    32   1
    36    11    33   1
    37    13    34   1
    38    16    35   1
    39    17    36   1
    40    17    37   1
    41    18    38   1
    42    19    39   1
    43    22    40   1
    44    24    41   1
    45    25    42   1
    46    27    43   1
@<TRIPOS>SUBSTRUCTURE
     1  G97      1

