@<TRIPOS>MOLECULE
3huc_ligand_071
    43    46
SMALL
GAST_HUCK
****
This file was generated by PARSER (from files_GN.cpp)

@<TRIPOS>ATOM
      1 CAH        16.2528    0.2232  -13.5527 C.ar        1 G97      -0.0465
      2 CAE        15.1668   -0.5983  -13.2011 C.ar        1 G97      -0.0569
      3 CAD        14.0722   -0.0583  -12.5033 C.ar        1 G97      -0.0580
      4 CAF        14.0696    1.3060  -12.1511 C.ar        1 G97      -0.0569
      5 CAI        15.1652    2.1222  -12.4838 C.ar        1 G97      -0.0465
      6 CAW        16.2703    1.5905  -13.1892 C.ar        1 G97       0.0141
      7 C2         17.3820    2.4003  -13.5244 C.ar        1 G97       0.0921
      8 N1         17.9228    3.2723  -12.6380 N.ar        1 G97      -0.2553
      9 N3         17.9362    2.3237  -14.7602 N.ar        1 G97      -0.3009
     10 C4         19.0253    3.0463  -15.1180 C.ar        1 G97       0.0255
     11 CAM        19.5471    2.8810  -16.4156 C.ar        1 G97      -0.0253
     12 CAU        20.7286    3.5468  -16.8014 C.ar        1 G97       0.0730
     13 NAQ        21.1585    3.4103  -18.0892 N.am        1 G97      -0.2295
     14 CAT        22.4073    3.3150  -18.5302 C.2         1 G97       0.2258
     15 OAB        23.3460    3.1471  -17.7596 O.2         1 G97      -0.3745
     16 CAC        22.6309    3.2997  -19.8680 C.2         1 G97       0.0150
     17 CAA        23.7573    3.7281  -20.4525 C.2         1 G97      -0.0781
     18 CAK        21.3699    4.3751  -15.8601 C.ar        1 G97      -0.0283
     19 CAL        20.8329    4.5395  -14.5682 C.ar        1 G97      -0.0465
     20 C5         19.6215    3.9292  -14.1790 C.ar        1 G97       0.0455
     21 C6         18.9912    4.0639  -12.9121 C.ar        1 G97       0.1561
     22 NAR        19.2830    4.8874  -11.8713 N.pl3       1 G97      -0.2206
     23 CAV        19.9020    6.0883  -11.8402 C.2         1 G97       0.1818
     24 CAJ        19.9433    7.1250  -12.7705 C.2         1 G97      -0.0280
     25 CAG        20.5727    8.1886  -12.1231 C.2         1 G97      -0.0243
     26 NAS        20.8389    7.8071  -10.8430 N.2         1 G97      -0.2412
     27 NAN        20.4568    6.5817  -10.7090 N.pl3       1 G97      -0.2006
     28 H1         17.0436   -0.1951  -14.0514 H           1 G97       0.0660
     29 H2         15.1766   -1.5917  -13.4467 H           1 G97       0.0628
     30 H3         13.2875   -0.6560  -12.2426 H           1 G97       0.0649
     31 H4         13.2663    1.7001  -11.6533 H           1 G97       0.0628
     32 H5         15.1388    3.1154  -12.2258 H           1 G97       0.0660
     33 H6         19.0725    2.2740  -17.0767 H           1 G97       0.0447
     34 H7         20.4605    3.3724  -18.7581 H           1 G97       0.2290
     35 H8         21.8947    2.9928  -20.4650 H           1 G97       0.0698
     36 H9         23.8302    3.7541  -21.4435 H           1 G97       0.0686
     37 H10        24.5305    4.0591  -19.9204 H           1 G97       0.0686
     38 H11        22.2148    4.8940  -16.1045 H           1 G97       0.0570
     39 H12        21.3648    5.1201  -13.9189 H           1 G97       0.0666
     40 H13        18.8582    4.6381  -11.0343 H           1 G97       0.2279
     41 H14        19.4749    7.1511  -13.6767 H           1 G97       0.0216
     42 H15        20.7455    9.1094  -12.5268 H           1 G97       0.0607
     43 H16        20.5434    6.0908   -9.8779 H           1 G97       0.2521
@<TRIPOS>BOND
     1     1     2  ar
     2     1     6  ar
     3     2     3  ar
     4     3     4  ar
     5     4     5  ar
     6     5     6  ar
     7     6     7   1
     8     7     8  ar
     9     7     9  ar
    10     8    21  ar
    11     9    10  ar
    12    10    11  ar
    13    10    20  ar
    14    11    12  ar
    15    12    13   1
    16    12    18  ar
    17    13    14  am
    18    14    15   2
    19    14    16   1
    20    16    17   2
    21    18    19  ar
    22    19    20  ar
    23    20    21  ar
    24    21    22   1
    25    22    23   1
    26    23    24   2
    27    23    27   1
    28    24    25   1
    29    25    26   2
    30    26    27   1
    31     1    28   1
    32     2    29   1
    33     3    30   1
    34     4    31   1
    35     5    32   1
    36    11    33   1
    37    13    34   1
    38    16    35   1
    39    17    36   1
    40    17    37   1
    41    18    38   1
    42    19    39   1
    43    22    40   1
    44    24    41   1
    45    25    42   1
    46    27    43   1
@<TRIPOS>SUBSTRUCTURE
     1  G97      1

