@<TRIPOS>MOLECULE
3huc_ligand_078
    43    46
SMALL
GAST_HUCK
****
This file was generated by PARSER (from files_GN.cpp)

@<TRIPOS>ATOM
      1 CAH        24.3737    1.4419   -5.2522 C.ar        1 G97      -0.0465
      2 CAE        25.1973    2.4219   -4.6662 C.ar        1 G97      -0.0569
      3 CAD        26.5686    2.4582   -4.9693 C.ar        1 G97      -0.0580
      4 CAF        27.1145    1.5110   -5.8475 C.ar        1 G97      -0.0569
      5 CAI        26.2871    0.5300   -6.4238 C.ar        1 G97      -0.0465
      6 CAW        24.8960    0.4725   -6.1507 C.ar        1 G97       0.0141
      7 C2         24.0659   -0.5033   -6.7777 C.ar        1 G97       0.0921
      8 N1         24.5779   -1.4837   -7.5658 N.ar        1 G97      -0.2553
      9 N3         22.7205   -0.5086   -6.6132 N.ar        1 G97      -0.3009
     10 C4         21.9149   -1.4186   -7.2165 C.ar        1 G97       0.0255
     11 CAM        20.5252   -1.3127   -7.0140 C.ar        1 G97      -0.0253
     12 CAU        19.6200   -2.1689   -7.6722 C.ar        1 G97       0.0730
     13 NAQ        18.2897   -1.9729   -7.4001 N.am        1 G97      -0.2295
     14 CAT        17.2051   -2.3345   -8.0840 C.2         1 G97       0.2258
     15 OAB        17.2701   -2.8842   -9.1767 O.2         1 G97      -0.3745
     16 CAC        15.9887   -1.9476   -7.6135 C.2         1 G97       0.0150
     17 CAA        14.8499   -2.6209   -7.8278 C.2         1 G97      -0.0781
     18 CAK        20.1577   -3.1530   -8.5358 C.ar        1 G97      -0.0283
     19 CAL        21.5491   -3.2581   -8.7573 C.ar        1 G97      -0.0465
     20 C5         22.4618   -2.4183   -8.0771 C.ar        1 G97       0.0455
     21 C6         23.8776   -2.4559   -8.2081 C.ar        1 G97       0.1561
     22 NAR        24.7512   -3.2817   -8.8444 N.pl3       1 G97      -0.2206
     23 CAV        24.7308   -4.4771   -9.5123 C.2         1 G97       0.1818
     24 CAJ        25.8981   -4.8732  -10.1526 C.2         1 G97      -0.0280
     25 CAG        25.6421   -6.1018  -10.7382 C.2         1 G97      -0.0243
     26 NAS        24.3698   -6.4399  -10.4462 N.2         1 G97      -0.2412
     27 NAN        23.8495   -5.4916   -9.7263 N.pl3       1 G97      -0.2006
     28 H1         23.3748    1.4538   -5.0190 H           1 G97       0.0660
     29 H2         24.8023    3.1141   -4.0296 H           1 G97       0.0628
     30 H3         27.1681    3.1716   -4.5556 H           1 G97       0.0649
     31 H4         28.1108    1.5265   -6.0673 H           1 G97       0.0628
     32 H5         26.7209   -0.1481   -7.0562 H           1 G97       0.0660
     33 H6         20.1747   -0.5805   -6.3897 H           1 G97       0.0447
     34 H7         18.1060   -1.4456   -6.5966 H           1 G97       0.2290
     35 H8         15.9365   -1.1228   -7.0572 H           1 G97       0.0698
     36 H9         13.9996   -2.2861   -7.4413 H           1 G97       0.0686
     37 H10        14.8345   -3.4591   -8.3657 H           1 G97       0.0686
     38 H11        19.5371   -3.8007   -9.0279 H           1 G97       0.0570
     39 H12        21.8866   -3.9189   -9.4428 H           1 G97       0.0666
     40 H13        25.6529   -2.9191   -8.8121 H           1 G97       0.2279
     41 H14        26.7897   -4.3666  -10.1889 H           1 G97       0.0216
     42 H15        26.2981   -6.6560  -11.2882 H           1 G97       0.0607
     43 H16        22.9406   -5.5648   -9.3745 H           1 G97       0.2521
@<TRIPOS>BOND
     1     1     2  ar
     2     1     6  ar
     3     2     3  ar
     4     3     4  ar
     5     4     5  ar
     6     5     6  ar
     7     6     7   1
     8     7     8  ar
     9     7     9  ar
    10     8    21  ar
    11     9    10  ar
    12    10    11  ar
    13    10    20  ar
    14    11    12  ar
    15    12    13   1
    16    12    18  ar
    17    13    14  am
    18    14    15   2
    19    14    16   1
    20    16    17   2
    21    18    19  ar
    22    19    20  ar
    23    20    21  ar
    24    21    22   1
    25    22    23   1
    26    23    24   2
    27    23    27   1
    28    24    25   1
    29    25    26   2
    30    26    27   1
    31     1    28   1
    32     2    29   1
    33     3    30   1
    34     4    31   1
    35     5    32   1
    36    11    33   1
    37    13    34   1
    38    16    35   1
    39    17    36   1
    40    17    37   1
    41    18    38   1
    42    19    39   1
    43    22    40   1
    44    24    41   1
    45    25    42   1
    46    27    43   1
@<TRIPOS>SUBSTRUCTURE
     1  G97      1

