@<TRIPOS>MOLECULE
3huc_ligand_075
    43    46
SMALL
GAST_HUCK
****
This file was generated by PARSER (from files_GN.cpp)

@<TRIPOS>ATOM
      1 CAH        18.0032   -6.4182   -9.3925 C.ar        1 G97      -0.0465
      2 CAE        17.4618   -7.6301   -8.9274 C.ar        1 G97      -0.0569
      3 CAD        17.5245   -7.9523   -7.5587 C.ar        1 G97      -0.0580
      4 CAF        18.1364   -7.0579   -6.6634 C.ar        1 G97      -0.0569
      5 CAI        18.6779   -5.8488   -7.1296 C.ar        1 G97      -0.0465
      6 CAW        18.6342   -5.5027   -8.5112 C.ar        1 G97       0.0141
      7 C2         19.2146   -4.2872   -8.9847 C.ar        1 G97       0.0921
      8 N1         19.1066   -3.9025  -10.2840 N.ar        1 G97      -0.2553
      9 N3         19.9256   -3.4735   -8.1637 N.ar        1 G97      -0.3009
     10 C4         20.4892   -2.3132   -8.5804 C.ar        1 G97       0.0255
     11 CAM        21.1814   -1.5190   -7.6423 C.ar        1 G97      -0.0253
     12 CAU        21.7333   -0.2694   -8.0132 C.ar        1 G97       0.0730
     13 NAQ        22.4422    0.5794   -7.1927 N.am        1 G97      -0.2295
     14 CAT        23.0047    0.3776   -6.0044 C.2         1 G97       0.2258
     15 OAB        22.9329   -0.6819   -5.3958 O.2         1 G97      -0.3745
     16 CAC        23.7060    1.3929   -5.4483 C.2         1 G97       0.0150
     17 CAA        24.9792    1.2701   -5.0258 C.2         1 G97      -0.0781
     18 CAK        21.5132    0.1807   -9.3331 C.ar        1 G97      -0.0283
     19 CAL        20.8128   -0.6070  -10.2666 C.ar        1 G97      -0.0465
     20 C5         20.3450   -1.8969   -9.9311 C.ar        1 G97       0.0455
     21 C6         19.6619   -2.7805  -10.8132 C.ar        1 G97       0.1561
     22 NAR        19.4666   -2.6960  -12.1527 N.pl3       1 G97      -0.2206
     23 CAV        20.1796   -2.0454  -13.1069 C.2         1 G97       0.1818
     24 CAJ        21.5389   -1.7455  -13.1623 C.2         1 G97      -0.0280
     25 CAG        21.7433   -1.1666  -14.4042 C.2         1 G97      -0.0243
     26 NAS        20.5766   -1.1646  -15.0667 N.2         1 G97      -0.2412
     27 NAN        19.6718   -1.6998  -14.3008 N.pl3       1 G97      -0.2006
     28 H1         17.9416   -6.2209  -10.3950 H           1 G97       0.0660
     29 H2         17.0191   -8.2795   -9.5789 H           1 G97       0.0628
     30 H3         17.1397   -8.8355   -7.2200 H           1 G97       0.0649
     31 H4         18.1828   -7.2890   -5.6662 H           1 G97       0.0628
     32 H5         19.1165   -5.2226   -6.4488 H           1 G97       0.0660
     33 H6         21.2564   -1.8544   -6.6832 H           1 G97       0.0447
     34 H7         22.6127    1.4595   -7.5701 H           1 G97       0.2290
     35 H8         23.2890    2.2951   -5.4110 H           1 G97       0.0698
     36 H9         25.4527    2.0594   -4.6517 H           1 G97       0.0686
     37 H10        25.4615    0.4022   -5.0740 H           1 G97       0.0686
     38 H11        21.8497    1.1024   -9.6283 H           1 G97       0.0570
     39 H12        20.6326   -0.2057  -11.1864 H           1 G97       0.0666
     40 H13        18.7823   -3.2870  -12.5051 H           1 G97       0.2279
     41 H14        22.2496   -1.9279  -12.4487 H           1 G97       0.0216
     42 H15        22.6352   -0.8110  -14.7655 H           1 G97       0.0607
     43 H16        18.7473   -1.8326  -14.5622 H           1 G97       0.2521
@<TRIPOS>BOND
     1     1     2  ar
     2     1     6  ar
     3     2     3  ar
     4     3     4  ar
     5     4     5  ar
     6     5     6  ar
     7     6     7   1
     8     7     8  ar
     9     7     9  ar
    10     8    21  ar
    11     9    10  ar
    12    10    11  ar
    13    10    20  ar
    14    11    12  ar
    15    12    13   1
    16    12    18  ar
    17    13    14  am
    18    14    15   2
    19    14    16   1
    20    16    17   2
    21    18    19  ar
    22    19    20  ar
    23    20    21  ar
    24    21    22   1
    25    22    23   1
    26    23    24   2
    27    23    27   1
    28    24    25   1
    29    25    26   2
    30    26    27   1
    31     1    28   1
    32     2    29   1
    33     3    30   1
    34     4    31   1
    35     5    32   1
    36    11    33   1
    37    13    34   1
    38    16    35   1
    39    17    36   1
    40    17    37   1
    41    18    38   1
    42    19    39   1
    43    22    40   1
    44    24    41   1
    45    25    42   1
    46    27    43   1
@<TRIPOS>SUBSTRUCTURE
     1  G97      1

