@<TRIPOS>MOLECULE
3huc_ligand_064
    43    46
SMALL
GAST_HUCK
****
This file was generated by PARSER (from files_GN.cpp)

@<TRIPOS>ATOM
      1 CAH        25.1325   -2.6685  -10.5277 C.ar        1 G97      -0.0465
      2 CAE        25.6269   -3.0259  -11.7927 C.ar        1 G97      -0.0569
      3 CAD        24.7476   -3.1352  -12.8854 C.ar        1 G97      -0.0580
      4 CAF        23.3725   -2.8967  -12.7100 C.ar        1 G97      -0.0569
      5 CAI        22.8757   -2.5627  -11.4402 C.ar        1 G97      -0.0465
      6 CAW        23.7471   -2.4539  -10.3300 C.ar        1 G97       0.0141
      7 C2         23.2445   -2.1171   -9.0558 C.ar        1 G97       0.0921
      8 N1         23.9376   -1.2940   -8.2393 N.ar        1 G97      -0.2553
      9 N3         22.0446   -2.5676   -8.6211 N.ar        1 G97      -0.3009
     10 C4         21.5283   -2.1949   -7.4278 C.ar        1 G97       0.0255
     11 CAM        20.2519   -2.6763   -7.0921 C.ar        1 G97      -0.0253
     12 CAU        19.5946   -2.2333   -5.9279 C.ar        1 G97       0.0730
     13 NAQ        18.3324   -2.7297   -5.7347 N.am        1 G97      -0.2295
     14 CAT        17.3246   -2.2852   -4.9927 C.2         1 G97       0.2258
     15 OAB        17.4124   -1.2786   -4.2999 O.2         1 G97      -0.3745
     16 CAC        16.1444   -2.9530   -5.0602 C.2         1 G97       0.0150
     17 CAA        14.9370   -2.3800   -4.9550 C.2         1 G97      -0.0781
     18 CAK        20.2722   -1.3109   -5.0960 C.ar        1 G97      -0.0283
     19 CAL        21.5520   -0.8274   -5.4318 C.ar        1 G97      -0.0465
     20 C5         22.2284   -1.2832   -6.5838 C.ar        1 G97       0.0455
     21 C6         23.5192   -0.8639   -7.0236 C.ar        1 G97       0.1561
     22 NAR        24.4893   -0.0759   -6.5045 N.pl3       1 G97      -0.2206
     23 CAV        24.7337    0.5286   -5.3228 C.2         1 G97       0.1818
     24 CAJ        25.7314    1.4862   -5.2342 C.2         1 G97      -0.0280
     25 CAG        25.7387    1.9206   -3.9239 C.2         1 G97      -0.0243
     26 NAS        24.8186    1.2097   -3.2498 N.2         1 G97      -0.2412
     27 NAN        24.2495    0.3865   -4.0736 N.pl3       1 G97      -0.2006
     28 H1         25.7901   -2.5891   -9.7466 H           1 G97       0.0660
     29 H2         26.6246   -3.2012  -11.9207 H           1 G97       0.0628
     30 H3         25.1112   -3.3800  -13.8082 H           1 G97       0.0649
     31 H4         22.7379   -2.9576  -13.5087 H           1 G97       0.0628
     32 H5         21.8731   -2.3794  -11.3336 H           1 G97       0.0660
     33 H6         19.7804   -3.3241   -7.7323 H           1 G97       0.0447
     34 H7         18.1140   -3.4950   -6.2918 H           1 G97       0.2290
     35 H8         16.1662   -3.9325   -5.2426 H           1 G97       0.0698
     36 H9         14.1175   -2.9278   -5.0616 H           1 G97       0.0686
     37 H10        14.8351   -1.4040   -4.7940 H           1 G97       0.0686
     38 H11        19.8382   -0.9692   -4.2388 H           1 G97       0.0570
     39 H12        21.9421   -0.0947   -4.8504 H           1 G97       0.0666
     40 H13        25.2039    0.0948   -7.1425 H           1 G97       0.2279
     41 H14        26.3288    1.8242   -5.9935 H           1 G97       0.0216
     42 H15        26.3355    2.6562   -3.5410 H           1 G97       0.0607
     43 H16        23.5697   -0.2520   -3.8113 H           1 G97       0.2521
@<TRIPOS>BOND
     1     1     2  ar
     2     1     6  ar
     3     2     3  ar
     4     3     4  ar
     5     4     5  ar
     6     5     6  ar
     7     6     7   1
     8     7     8  ar
     9     7     9  ar
    10     8    21  ar
    11     9    10  ar
    12    10    11  ar
    13    10    20  ar
    14    11    12  ar
    15    12    13   1
    16    12    18  ar
    17    13    14  am
    18    14    15   2
    19    14    16   1
    20    16    17   2
    21    18    19  ar
    22    19    20  ar
    23    20    21  ar
    24    21    22   1
    25    22    23   1
    26    23    24   2
    27    23    27   1
    28    24    25   1
    29    25    26   2
    30    26    27   1
    31     1    28   1
    32     2    29   1
    33     3    30   1
    34     4    31   1
    35     5    32   1
    36    11    33   1
    37    13    34   1
    38    16    35   1
    39    17    36   1
    40    17    37   1
    41    18    38   1
    42    19    39   1
    43    22    40   1
    44    24    41   1
    45    25    42   1
    46    27    43   1
@<TRIPOS>SUBSTRUCTURE
     1  G97      1

