@<TRIPOS>MOLECULE
3huc_ligand_032
    43    46
SMALL
GAST_HUCK
****
This file was generated by PARSER (from files_GN.cpp)

@<TRIPOS>ATOM
      1 CAH        22.2069    1.0671  -15.9303 C.ar        1 G97      -0.0465
      2 CAE        22.3666    2.0568  -16.9204 C.ar        1 G97      -0.0569
      3 CAD        22.3507    1.7098  -18.2789 C.ar        1 G97      -0.0580
      4 CAF        22.1673    0.3692  -18.6551 C.ar        1 G97      -0.0569
      5 CAI        21.9694   -0.6182  -17.6702 C.ar        1 G97      -0.0465
      6 CAW        22.0091   -0.2925  -16.2954 C.ar        1 G97       0.0141
      7 C2         21.8306   -1.2922  -15.3146 C.ar        1 G97       0.0921
      8 N1         22.6883   -1.4119  -14.2647 N.ar        1 G97      -0.2553
      9 N3         20.8228   -2.1928  -15.4097 N.ar        1 G97      -0.3009
     10 C4         20.5876   -3.1132  -14.4431 C.ar        1 G97       0.0255
     11 CAM        19.4800   -3.9677  -14.5773 C.ar        1 G97      -0.0253
     12 CAU        19.1149   -4.8451  -13.5324 C.ar        1 G97       0.0730
     13 NAQ        18.0563   -5.6782  -13.7684 N.am        1 G97      -0.2295
     14 CAT        17.1457   -6.1137  -12.9074 C.2         1 G97       0.2258
     15 OAB        17.0665   -5.6800  -11.7613 O.2         1 G97      -0.3745
     16 CAC        16.1400   -6.8867  -13.3467 C.2         1 G97       0.0150
     17 CAA        16.2007   -8.2240  -13.3248 C.2         1 G97      -0.0781
     18 CAK        19.8707   -4.8260  -12.3354 C.ar        1 G97      -0.0283
     19 CAL        20.9908   -3.9799  -12.2137 C.ar        1 G97      -0.0465
     20 C5         21.4121   -3.1675  -13.2849 C.ar        1 G97       0.0455
     21 C6         22.5752   -2.3526  -13.2862 C.ar        1 G97       0.1561
     22 NAR        23.6872   -2.3900  -12.4992 N.pl3       1 G97      -0.2206
     23 CAV        24.2544   -3.3576  -11.7339 C.2         1 G97       0.1818
     24 CAJ        23.9982   -4.7129  -11.5148 C.2         1 G97      -0.0280
     25 CAG        25.0309   -5.1674  -10.7113 C.2         1 G97      -0.0243
     26 NAS        25.8729   -4.1492  -10.4787 N.2         1 G97      -0.2412
     27 NAN        25.4043   -3.1035  -11.0761 N.pl3       1 G97      -0.2006
     28 H1         22.2189    1.3456  -14.9478 H           1 G97       0.0660
     29 H2         22.4935    3.0365  -16.6510 H           1 G97       0.0628
     30 H3         22.4752    2.4322  -18.9967 H           1 G97       0.0649
     31 H4         22.1817    0.1112  -19.6442 H           1 G97       0.0628
     32 H5         21.8291   -1.5876  -17.9686 H           1 G97       0.0660
     33 H6         18.9080   -3.9265  -15.4286 H           1 G97       0.0447
     34 H7         17.9290   -5.9405  -14.7020 H           1 G97       0.2290
     35 H8         15.3112   -6.4463  -13.6845 H           1 G97       0.0698
     36 H9         17.0002   -8.7013  -12.9749 H           1 G97       0.0686
     37 H10        15.4321   -8.7621  -13.6480 H           1 G97       0.0686
     38 H11        19.6280   -5.4364  -11.5529 H           1 G97       0.0570
     39 H12        21.4721   -3.9395  -11.3165 H           1 G97       0.0666
     40 H13        24.2770   -1.6321  -12.6287 H           1 G97       0.2279
     41 H14        23.2569   -5.3081  -11.8936 H           1 G97       0.0216
     42 H15        25.1567   -6.1263  -10.3753 H           1 G97       0.0607
     43 H16        25.8399   -2.2354  -11.0637 H           1 G97       0.2521
@<TRIPOS>BOND
     1     1     2  ar
     2     1     6  ar
     3     2     3  ar
     4     3     4  ar
     5     4     5  ar
     6     5     6  ar
     7     6     7   1
     8     7     8  ar
     9     7     9  ar
    10     8    21  ar
    11     9    10  ar
    12    10    11  ar
    13    10    20  ar
    14    11    12  ar
    15    12    13   1
    16    12    18  ar
    17    13    14  am
    18    14    15   2
    19    14    16   1
    20    16    17   2
    21    18    19  ar
    22    19    20  ar
    23    20    21  ar
    24    21    22   1
    25    22    23   1
    26    23    24   2
    27    23    27   1
    28    24    25   1
    29    25    26   2
    30    26    27   1
    31     1    28   1
    32     2    29   1
    33     3    30   1
    34     4    31   1
    35     5    32   1
    36    11    33   1
    37    13    34   1
    38    16    35   1
    39    17    36   1
    40    17    37   1
    41    18    38   1
    42    19    39   1
    43    22    40   1
    44    24    41   1
    45    25    42   1
    46    27    43   1
@<TRIPOS>SUBSTRUCTURE
     1  G97      1

