@<TRIPOS>MOLECULE
3huc_ligand_080
    43    46
SMALL
GAST_HUCK
****
This file was generated by PARSER (from files_GN.cpp)

@<TRIPOS>ATOM
      1 CAH        21.6105   -0.1073  -10.8715 C.ar        1 G97      -0.0465
      2 CAE        21.4694    1.2706  -10.6164 C.ar        1 G97      -0.0569
      3 CAD        21.9759    1.8223   -9.4254 C.ar        1 G97      -0.0580
      4 CAF        22.6468    1.0004   -8.5014 C.ar        1 G97      -0.0569
      5 CAI        22.8139   -0.3727   -8.7669 C.ar        1 G97      -0.0465
      6 CAW        22.2903   -0.9415   -9.9518 C.ar        1 G97       0.0141
      7 C2         22.4268   -2.3195  -10.2036 C.ar        1 G97       0.0921
      8 N1         23.6425   -2.9159  -10.2684 N.ar        1 G97      -0.2553
      9 N3         21.3228   -3.0830  -10.3695 N.ar        1 G97      -0.3009
     10 C4         21.3939   -4.4195  -10.5798 C.ar        1 G97       0.0255
     11 CAM        20.1951   -5.1422  -10.6995 C.ar        1 G97      -0.0253
     12 CAU        20.2067   -6.5449  -10.8642 C.ar        1 G97       0.0730
     13 NAQ        19.0718   -7.3059  -10.9761 N.am        1 G97      -0.2295
     14 CAT        17.8376   -7.0653  -10.5513 C.2         1 G97       0.2258
     15 OAB        17.5601   -6.1130   -9.8348 O.2         1 G97      -0.3745
     16 CAC        16.8488   -7.9390  -10.8476 C.2         1 G97       0.0150
     17 CAA        15.7424   -7.5905  -11.5241 C.2         1 G97      -0.0781
     18 CAK        21.4565   -7.1887  -11.0013 C.ar        1 G97      -0.0283
     19 CAL        22.6682   -6.4693  -10.9029 C.ar        1 G97      -0.0465
     20 C5         22.6539   -5.0707  -10.6626 C.ar        1 G97       0.0455
     21 C6         23.8068   -4.2508  -10.5065 C.ar        1 G97       0.1561
     22 NAR        25.0547   -4.7793  -10.5911 N.pl3       1 G97      -0.2206
     23 CAV        26.2359   -4.1140  -10.4965 C.2         1 G97       0.1818
     24 CAJ        27.4768   -4.7194  -10.6015 C.2         1 G97      -0.0280
     25 CAG        28.4053   -3.6987  -10.4773 C.2         1 G97      -0.0243
     26 NAS        27.7406   -2.5421  -10.3153 N.2         1 G97      -0.2412
     27 NAN        26.4713   -2.8015  -10.3129 N.pl3       1 G97      -0.2006
     28 H1         21.2355   -0.4908  -11.7442 H           1 G97       0.0660
     29 H2         20.9959    1.8711  -11.2962 H           1 G97       0.0628
     30 H3         21.8578    2.8205   -9.2318 H           1 G97       0.0649
     31 H4         23.0083    1.3987   -7.6321 H           1 G97       0.0628
     32 H5         23.2938   -0.9568   -8.0763 H           1 G97       0.0660
     33 H6         19.3122   -4.6290  -10.6811 H           1 G97       0.0447
     34 H7         19.1880   -8.1575  -11.4244 H           1 G97       0.2290
     35 H8         16.9496   -8.8904  -10.5692 H           1 G97       0.0698
     36 H9         15.0466   -8.2657  -11.7328 H           1 G97       0.0686
     37 H10        15.5945   -6.6568  -11.8326 H           1 G97       0.0686
     38 H11        21.4925   -8.1993  -11.1738 H           1 G97       0.0570
     39 H12        23.5490   -6.9812  -11.0094 H           1 G97       0.0666
     40 H13        25.1173   -5.7327  -10.7533 H           1 G97       0.2279
     41 H14        27.6663   -5.7121  -10.7476 H           1 G97       0.0216
     42 H15        29.4189   -3.8061  -10.5127 H           1 G97       0.0607
     43 H16        25.7821   -2.1250  -10.2138 H           1 G97       0.2521
@<TRIPOS>BOND
     1     1     2  ar
     2     1     6  ar
     3     2     3  ar
     4     3     4  ar
     5     4     5  ar
     6     5     6  ar
     7     6     7   1
     8     7     8  ar
     9     7     9  ar
    10     8    21  ar
    11     9    10  ar
    12    10    11  ar
    13    10    20  ar
    14    11    12  ar
    15    12    13   1
    16    12    18  ar
    17    13    14  am
    18    14    15   2
    19    14    16   1
    20    16    17   2
    21    18    19  ar
    22    19    20  ar
    23    20    21  ar
    24    21    22   1
    25    22    23   1
    26    23    24   2
    27    23    27   1
    28    24    25   1
    29    25    26   2
    30    26    27   1
    31     1    28   1
    32     2    29   1
    33     3    30   1
    34     4    31   1
    35     5    32   1
    36    11    33   1
    37    13    34   1
    38    16    35   1
    39    17    36   1
    40    17    37   1
    41    18    38   1
    42    19    39   1
    43    22    40   1
    44    24    41   1
    45    25    42   1
    46    27    43   1
@<TRIPOS>SUBSTRUCTURE
     1  G97      1

