@<TRIPOS>MOLECULE
3huc_ligand_054
    43    46
SMALL
GAST_HUCK
****
This file was generated by PARSER (from files_GN.cpp)

@<TRIPOS>ATOM
      1 CAH        22.7552   -2.9760  -19.5575 C.ar        1 G97      -0.0465
      2 CAE        22.8840   -4.1179  -20.3697 C.ar        1 G97      -0.0569
      3 CAD        22.2010   -5.2994  -20.0349 C.ar        1 G97      -0.0580
      4 CAF        21.3931   -5.3424  -18.8866 C.ar        1 G97      -0.0569
      5 CAI        21.2739   -4.2046  -18.0703 C.ar        1 G97      -0.0465
      6 CAW        21.9478   -2.9980  -18.3930 C.ar        1 G97       0.0141
      7 C2         21.8219   -1.8497  -17.5637 C.ar        1 G97       0.0921
      8 N1         22.1755   -0.6037  -17.9737 N.ar        1 G97      -0.2553
      9 N3         21.3504   -1.9695  -16.2978 N.ar        1 G97      -0.3009
     10 C4         21.2119   -0.9227  -15.4569 C.ar        1 G97       0.0255
     11 CAM        20.7064   -1.1677  -14.1720 C.ar        1 G97      -0.0253
     12 CAU        20.4802   -0.1103  -13.2619 C.ar        1 G97       0.0730
     13 NAQ        19.9735   -0.2861  -11.9963 N.am        1 G97      -0.2295
     14 CAT        19.2552   -1.2965  -11.5091 C.2         1 G97       0.2258
     15 OAB        18.7956   -2.1925  -12.2048 O.2         1 G97      -0.3745
     16 CAC        18.9241   -1.3066  -10.2013 C.2         1 G97       0.0150
     17 CAA        19.1847   -2.3486   -9.3941 C.2         1 G97      -0.0781
     18 CAK        20.8597    1.1896  -13.6642 C.ar        1 G97      -0.0283
     19 CAL        21.3960    1.4412  -14.9477 C.ar        1 G97      -0.0465
     20 C5         21.5685    0.3826  -15.8769 C.ar        1 G97       0.0455
     21 C6         22.0748    0.5143  -17.1995 C.ar        1 G97       0.1561
     22 NAR        22.4545    1.7224  -17.6904 N.pl3       1 G97      -0.2206
     23 CAV        22.9612    1.9941  -18.9245 C.2         1 G97       0.1818
     24 CAJ        23.3216    3.2604  -19.3534 C.2         1 G97      -0.0280
     25 CAG        23.7896    3.1038  -20.6487 C.2         1 G97      -0.0243
     26 NAS        23.7102    1.8033  -20.9671 N.2         1 G97      -0.2412
     27 NAN        23.2234    1.1620  -19.9508 N.pl3       1 G97      -0.2006
     28 H1         23.2735   -2.1337  -19.8165 H           1 G97       0.0660
     29 H2         23.4773   -4.0905  -21.2010 H           1 G97       0.0628
     30 H3         22.2932   -6.1264  -20.6290 H           1 G97       0.0649
     31 H4         20.8906   -6.1970  -18.6409 H           1 G97       0.0628
     32 H5         20.6741   -4.2644  -17.2449 H           1 G97       0.0660
     33 H6         20.5300   -2.1339  -13.9042 H           1 G97       0.0447
     34 H7         20.1539    0.4343  -11.3652 H           1 G97       0.2290
     35 H8         18.4517   -0.5133   -9.8255 H           1 G97       0.0698
     36 H9         18.8946   -2.3287   -8.4463 H           1 G97       0.0686
     37 H10        19.6718   -3.1505   -9.7263 H           1 G97       0.0686
     38 H11        20.7396    1.9803  -13.0195 H           1 G97       0.0570
     39 H12        21.6456    2.4007  -15.2002 H           1 G97       0.0666
     40 H13        22.3606    2.4793  -17.0944 H           1 G97       0.2279
     41 H14        23.2585    4.1340  -18.8290 H           1 G97       0.0216
     42 H15        24.1364    3.8451  -21.2572 H           1 G97       0.0607
     43 H16        23.0712    0.2048  -19.9386 H           1 G97       0.2521
@<TRIPOS>BOND
     1     1     2  ar
     2     1     6  ar
     3     2     3  ar
     4     3     4  ar
     5     4     5  ar
     6     5     6  ar
     7     6     7   1
     8     7     8  ar
     9     7     9  ar
    10     8    21  ar
    11     9    10  ar
    12    10    11  ar
    13    10    20  ar
    14    11    12  ar
    15    12    13   1
    16    12    18  ar
    17    13    14  am
    18    14    15   2
    19    14    16   1
    20    16    17   2
    21    18    19  ar
    22    19    20  ar
    23    20    21  ar
    24    21    22   1
    25    22    23   1
    26    23    24   2
    27    23    27   1
    28    24    25   1
    29    25    26   2
    30    26    27   1
    31     1    28   1
    32     2    29   1
    33     3    30   1
    34     4    31   1
    35     5    32   1
    36    11    33   1
    37    13    34   1
    38    16    35   1
    39    17    36   1
    40    17    37   1
    41    18    38   1
    42    19    39   1
    43    22    40   1
    44    24    41   1
    45    25    42   1
    46    27    43   1
@<TRIPOS>SUBSTRUCTURE
     1  G97      1

