@<TRIPOS>MOLECULE
3huc_ligand_031
    43    46
SMALL
GAST_HUCK
****
This file was generated by PARSER (from files_GN.cpp)

@<TRIPOS>ATOM
      1 CAH        18.8247    1.9289  -23.5756 C.ar        1 G97      -0.0465
      2 CAE        17.8646    2.3907  -24.4954 C.ar        1 G97      -0.0569
      3 CAD        18.0178    3.6557  -25.0883 C.ar        1 G97      -0.0580
      4 CAF        19.1141    4.4684  -24.7505 C.ar        1 G97      -0.0569
      5 CAI        20.0587    4.0112  -23.8142 C.ar        1 G97      -0.0465
      6 CAW        19.9316    2.7338  -23.2188 C.ar        1 G97       0.0141
      7 C2         20.8638    2.2837  -22.2633 C.ar        1 G97       0.0921
      8 N1         21.2707    3.1211  -21.2786 N.ar        1 G97      -0.2553
      9 N3         21.3554    1.0117  -22.2912 N.ar        1 G97      -0.3009
     10 C4         22.2453    0.5632  -21.3623 C.ar        1 G97       0.0255
     11 CAM        22.7628   -0.7487  -21.4403 C.ar        1 G97      -0.0253
     12 CAU        23.6627   -1.2351  -20.4637 C.ar        1 G97       0.0730
     13 NAQ        24.2299   -2.4851  -20.4421 N.am        1 G97      -0.2295
     14 CAT        23.8445   -3.6308  -20.9961 C.2         1 G97       0.2258
     15 OAB        22.8170   -3.7429  -21.6404 O.2         1 G97      -0.3745
     16 CAC        24.5788   -4.7386  -20.7442 C.2         1 G97       0.0150
     17 CAA        25.1342   -5.5050  -21.6841 C.2         1 G97      -0.0781
     18 CAK        24.0269   -0.3742  -19.4095 C.ar        1 G97      -0.0283
     19 CAL        23.5159    0.9287  -19.3204 C.ar        1 G97      -0.0465
     20 C5         22.6361    1.4275  -20.3042 C.ar        1 G97       0.0455
     21 C6         22.1253    2.7508  -20.2922 C.ar        1 G97       0.1561
     22 NAR        22.4861    3.6325  -19.3184 N.pl3       1 G97      -0.2206
     23 CAV        22.1199    4.9213  -19.1281 C.2         1 G97       0.1818
     24 CAJ        21.2482    5.7566  -19.8102 C.2         1 G97      -0.0280
     25 CAG        21.3012    6.9733  -19.1545 C.2         1 G97      -0.0243
     26 NAS        22.1634    6.8651  -18.1342 N.2         1 G97      -0.2412
     27 NAN        22.6352    5.6531  -18.1306 N.pl3       1 G97      -0.2006
     28 H1         18.6893    1.0031  -23.1449 H           1 G97       0.0660
     29 H2         17.0552    1.8107  -24.7271 H           1 G97       0.0628
     30 H3         17.3221    3.9965  -25.7606 H           1 G97       0.0649
     31 H4         19.2293    5.3871  -25.1811 H           1 G97       0.0628
     32 H5         20.8572    4.6190  -23.5829 H           1 G97       0.0660
     33 H6         22.4844   -1.3409  -22.2280 H           1 G97       0.0447
     34 H7         25.0174   -2.5641  -19.8862 H           1 G97       0.2290
     35 H8         24.7900   -4.9499  -19.7963 H           1 G97       0.0698
     36 H9         25.6997   -6.2797  -21.4303 H           1 G97       0.0686
     37 H10        25.0081   -5.3259  -22.6474 H           1 G97       0.0686
     38 H11        24.6475   -0.7060  -18.6709 H           1 G97       0.0570
     39 H12        23.7964    1.4991  -18.5224 H           1 G97       0.0666
     40 H13        23.1035    3.2941  -18.6578 H           1 G97       0.2279
     41 H14        20.6927    5.5340  -20.6360 H           1 G97       0.0216
     42 H15        20.7897    7.8231  -19.4034 H           1 G97       0.0607
     43 H16        23.2922    5.3198  -17.4977 H           1 G97       0.2521
@<TRIPOS>BOND
     1     1     2  ar
     2     1     6  ar
     3     2     3  ar
     4     3     4  ar
     5     4     5  ar
     6     5     6  ar
     7     6     7   1
     8     7     8  ar
     9     7     9  ar
    10     8    21  ar
    11     9    10  ar
    12    10    11  ar
    13    10    20  ar
    14    11    12  ar
    15    12    13   1
    16    12    18  ar
    17    13    14  am
    18    14    15   2
    19    14    16   1
    20    16    17   2
    21    18    19  ar
    22    19    20  ar
    23    20    21  ar
    24    21    22   1
    25    22    23   1
    26    23    24   2
    27    23    27   1
    28    24    25   1
    29    25    26   2
    30    26    27   1
    31     1    28   1
    32     2    29   1
    33     3    30   1
    34     4    31   1
    35     5    32   1
    36    11    33   1
    37    13    34   1
    38    16    35   1
    39    17    36   1
    40    17    37   1
    41    18    38   1
    42    19    39   1
    43    22    40   1
    44    24    41   1
    45    25    42   1
    46    27    43   1
@<TRIPOS>SUBSTRUCTURE
     1  G97      1

