@<TRIPOS>MOLECULE
3huc_ligand_003
    43    46
SMALL
GAST_HUCK
****
This file was generated by PARSER (from files_GN.cpp)

@<TRIPOS>ATOM
      1 CAH        20.9705    1.4967  -16.2187 C.ar        1 G97      -0.0465
      2 CAE        21.0730    2.0779  -17.4973 C.ar        1 G97      -0.0569
      3 CAD        22.1439    1.7379  -18.3413 C.ar        1 G97      -0.0580
      4 CAF        23.1130    0.8196  -17.9031 C.ar        1 G97      -0.0569
      5 CAI        23.0080    0.2388  -16.6243 C.ar        1 G97      -0.0465
      6 CAW        21.9365    0.5655  -15.7553 C.ar        1 G97       0.0141
      7 C2         21.8414   -0.0117  -14.4558 C.ar        1 G97       0.0921
      8 N1         21.0826    0.5677  -13.4871 N.ar        1 G97      -0.2553
      9 N3         22.5044   -1.1531  -14.1267 N.ar        1 G97      -0.3009
     10 C4         22.4614   -1.6883  -12.8799 C.ar        1 G97       0.0255
     11 CAM        23.2278   -2.8364  -12.5998 C.ar        1 G97      -0.0253
     12 CAU        23.3400   -3.3384  -11.2833 C.ar        1 G97       0.0730
     13 NAQ        24.1523   -4.4331  -11.1262 N.am        1 G97      -0.2295
     14 CAT        24.6484   -5.0211  -10.0382 C.2         1 G97       0.2258
     15 OAB        24.3556   -4.6784   -8.8988 O.2         1 G97      -0.3745
     16 CAC        25.5241   -6.0523  -10.1548 C.2         1 G97       0.0150
     17 CAA        26.3884   -6.2036  -11.1690 C.2         1 G97      -0.0781
     18 CAK        22.6642   -2.6454  -10.2513 C.ar        1 G97      -0.0283
     19 CAL        21.8805   -1.5118  -10.5324 C.ar        1 G97      -0.0465
     20 C5         21.7162   -1.0442  -11.8537 C.ar        1 G97       0.0455
     21 C6         20.9506    0.0971  -12.2206 C.ar        1 G97       0.1561
     22 NAR        20.0736    0.8268  -11.4860 N.pl3       1 G97      -0.2206
     23 CAV        19.3586    0.4846  -10.3836 C.2         1 G97       0.1818
     24 CAJ        18.7869    1.4047   -9.5192 C.2         1 G97      -0.0280
     25 CAG        18.0627    0.6634   -8.6003 C.2         1 G97      -0.0243
     26 NAS        18.1722   -0.6328   -8.9290 N.2         1 G97      -0.2412
     27 NAN        18.9267   -0.7265   -9.9801 N.pl3       1 G97      -0.2006
     28 H1         20.1734    1.7598  -15.6342 H           1 G97       0.0660
     29 H2         20.3651    2.7445  -17.8154 H           1 G97       0.0628
     30 H3         22.2193    2.1598  -19.2704 H           1 G97       0.0649
     31 H4         23.8968    0.5753  -18.5128 H           1 G97       0.0628
     32 H5         23.7392   -0.4106  -16.3287 H           1 G97       0.0660
     33 H6         23.7417   -3.2878  -13.3633 H           1 G97       0.0447
     34 H7         24.4503   -4.8277  -11.9657 H           1 G97       0.2290
     35 H8         25.5594   -6.7239   -9.4221 H           1 G97       0.0698
     36 H9         27.0098   -6.9760  -11.1838 H           1 G97       0.0686
     37 H10        26.4468   -5.5429  -11.9048 H           1 G97       0.0686
     38 H11        22.7354   -2.9405   -9.2787 H           1 G97       0.0570
     39 H12        21.4933   -0.9928   -9.7466 H           1 G97       0.0666
     40 H13        19.8275    1.6830  -11.8718 H           1 G97       0.2279
     41 H14        18.8802    2.4209   -9.5482 H           1 G97       0.0216
     42 H15        17.5186    1.0360   -7.8218 H           1 G97       0.0607
     43 H16        19.1317   -1.5673  -10.4176 H           1 G97       0.2521
@<TRIPOS>BOND
     1     1     2  ar
     2     1     6  ar
     3     2     3  ar
     4     3     4  ar
     5     4     5  ar
     6     5     6  ar
     7     6     7   1
     8     7     8  ar
     9     7     9  ar
    10     8    21  ar
    11     9    10  ar
    12    10    11  ar
    13    10    20  ar
    14    11    12  ar
    15    12    13   1
    16    12    18  ar
    17    13    14  am
    18    14    15   2
    19    14    16   1
    20    16    17   2
    21    18    19  ar
    22    19    20  ar
    23    20    21  ar
    24    21    22   1
    25    22    23   1
    26    23    24   2
    27    23    27   1
    28    24    25   1
    29    25    26   2
    30    26    27   1
    31     1    28   1
    32     2    29   1
    33     3    30   1
    34     4    31   1
    35     5    32   1
    36    11    33   1
    37    13    34   1
    38    16    35   1
    39    17    36   1
    40    17    37   1
    41    18    38   1
    42    19    39   1
    43    22    40   1
    44    24    41   1
    45    25    42   1
    46    27    43   1
@<TRIPOS>SUBSTRUCTURE
     1  G97      1

