@<TRIPOS>MOLECULE
3huc_ligand_062
    43    46
SMALL
GAST_HUCK
****
This file was generated by PARSER (from files_GN.cpp)

@<TRIPOS>ATOM
      1 CAH        21.2204   -4.9986  -16.1494 C.ar        1 G97      -0.0465
      2 CAE        21.2556   -5.1231  -17.5473 C.ar        1 G97      -0.0569
      3 CAD        21.4094   -3.9791  -18.3519 C.ar        1 G97      -0.0580
      4 CAF        21.5502   -2.7110  -17.7531 C.ar        1 G97      -0.0569
      5 CAI        21.5283   -2.5851  -16.3565 C.ar        1 G97      -0.0465
      6 CAW        21.3835   -3.7304  -15.5446 C.ar        1 G97       0.0141
      7 C2         21.4568   -3.6169  -14.1557 C.ar        1 G97       0.0921
      8 N1         20.3910   -3.9496  -13.3950 N.ar        1 G97      -0.2553
      9 N3         22.5933   -3.1748  -13.5638 N.ar        1 G97      -0.3009
     10 C4         22.6891   -3.0764  -12.2179 C.ar        1 G97       0.0255
     11 CAM        23.9039   -2.6483  -11.6451 C.ar        1 G97      -0.0253
     12 CAU        24.0387   -2.5370  -10.2454 C.ar        1 G97       0.0730
     13 NAQ        25.2598   -2.1157   -9.7951 N.am        1 G97      -0.2295
     14 CAT        25.7780   -2.0813   -8.5748 C.2         1 G97       0.2258
     15 OAB        25.1726   -2.5273   -7.6074 O.2         1 G97      -0.3745
     16 CAC        27.0395   -1.6006   -8.4199 C.2         1 G97       0.0150
     17 CAA        27.5524   -1.1772   -7.2544 C.2         1 G97      -0.0781
     18 CAK        22.9220   -2.8403   -9.4324 C.ar        1 G97      -0.0283
     19 CAL        21.7087   -3.2671  -10.0002 C.ar        1 G97      -0.0465
     20 C5         21.5765   -3.4032  -11.3978 C.ar        1 G97       0.0455
     21 C6         20.3887   -3.8471  -12.0412 C.ar        1 G97       0.1561
     22 NAR        19.2750   -4.1611  -11.3392 N.pl3       1 G97      -0.2206
     23 CAV        18.0685   -4.5674  -11.8209 C.2         1 G97       0.1818
     24 CAJ        16.9905   -4.8715  -11.0072 C.2         1 G97      -0.0280
     25 CAG        15.9621   -5.2397  -11.8594 C.2         1 G97      -0.0243
     26 NAS        16.4136   -5.1506  -13.1213 N.2         1 G97      -0.2412
     27 NAN        17.6483   -4.7538  -13.0875 N.pl3       1 G97      -0.2006
     28 H1         21.1159   -5.8387  -15.5739 H           1 G97       0.0660
     29 H2         21.1692   -6.0459  -17.9815 H           1 G97       0.0628
     30 H3         21.4291   -4.0694  -19.3686 H           1 G97       0.0649
     31 H4         21.6815   -1.8807  -18.3348 H           1 G97       0.0628
     32 H5         21.6479   -1.6588  -15.9341 H           1 G97       0.0660
     33 H6         24.6936   -2.4263  -12.2625 H           1 G97       0.0447
     34 H7         25.8648   -1.8134  -10.4918 H           1 G97       0.2290
     35 H8         27.6315   -1.5475   -9.2208 H           1 G97       0.0698
     36 H9         28.4812   -0.8481   -7.2070 H           1 G97       0.0686
     37 H10        27.0089   -1.1786   -6.4225 H           1 G97       0.0686
     38 H11        22.9604   -2.7415   -8.4216 H           1 G97       0.0570
     39 H12        20.9305   -3.4733   -9.3745 H           1 G97       0.0666
     40 H13        19.3296   -4.0734  -10.3761 H           1 G97       0.2279
     41 H14        16.9559   -4.8336   -9.9866 H           1 G97       0.0216
     42 H15        15.0232   -5.5262  -11.5796 H           1 G97       0.0607
     43 H16        18.1900   -4.6101  -13.8788 H           1 G97       0.2521
@<TRIPOS>BOND
     1     1     2  ar
     2     1     6  ar
     3     2     3  ar
     4     3     4  ar
     5     4     5  ar
     6     5     6  ar
     7     6     7   1
     8     7     8  ar
     9     7     9  ar
    10     8    21  ar
    11     9    10  ar
    12    10    11  ar
    13    10    20  ar
    14    11    12  ar
    15    12    13   1
    16    12    18  ar
    17    13    14  am
    18    14    15   2
    19    14    16   1
    20    16    17   2
    21    18    19  ar
    22    19    20  ar
    23    20    21  ar
    24    21    22   1
    25    22    23   1
    26    23    24   2
    27    23    27   1
    28    24    25   1
    29    25    26   2
    30    26    27   1
    31     1    28   1
    32     2    29   1
    33     3    30   1
    34     4    31   1
    35     5    32   1
    36    11    33   1
    37    13    34   1
    38    16    35   1
    39    17    36   1
    40    17    37   1
    41    18    38   1
    42    19    39   1
    43    22    40   1
    44    24    41   1
    45    25    42   1
    46    27    43   1
@<TRIPOS>SUBSTRUCTURE
     1  G97      1

