@<TRIPOS>MOLECULE
3huc_ligand_007
    43    46
SMALL
GAST_HUCK
****
This file was generated by PARSER (from files_GN.cpp)

@<TRIPOS>ATOM
      1 CAH        22.8095   -0.9605  -19.7914 C.ar        1 G97      -0.0465
      2 CAE        23.3161   -0.5835  -21.0491 C.ar        1 G97      -0.0569
      3 CAD        23.5812    0.7621  -21.3347 C.ar        1 G97      -0.0580
      4 CAF        23.3467    1.7442  -20.3507 C.ar        1 G97      -0.0569
      5 CAI        22.8349    1.3681  -19.0942 C.ar        1 G97      -0.0465
      6 CAW        22.5488    0.0049  -18.7846 C.ar        1 G97       0.0141
      7 C2         21.9932   -0.3585  -17.5232 C.ar        1 G97       0.0921
      8 N1         21.6632    0.5827  -16.6022 N.ar        1 G97      -0.2553
      9 N3         21.7795   -1.6523  -17.1729 N.ar        1 G97      -0.3009
     10 C4         21.2316   -2.0142  -15.9881 C.ar        1 G97       0.0255
     11 CAM        21.0276   -3.3776  -15.7168 C.ar        1 G97      -0.0253
     12 CAU        20.4127   -3.7975  -14.5173 C.ar        1 G97       0.0730
     13 NAQ        20.2511   -5.1401  -14.3556 N.am        1 G97      -0.2295
     14 CAT        20.2050   -5.8788  -13.2492 C.2         1 G97       0.2258
     15 OAB        20.3735   -5.3742  -12.1396 O.2         1 G97      -0.3745
     16 CAC        20.1122   -7.2381  -13.3342 C.2         1 G97       0.0150
     17 CAA        19.5028   -7.8833  -14.3442 C.2         1 G97      -0.0781
     18 CAK        19.9502   -2.7994  -13.6179 C.ar        1 G97      -0.0283
     19 CAL        20.1681   -1.4380  -13.8840 C.ar        1 G97      -0.0465
     20 C5         20.8475   -1.0100  -15.0413 C.ar        1 G97       0.0455
     21 C6         21.1275    0.3430  -15.3723 C.ar        1 G97       0.1561
     22 NAR        20.9917    1.5033  -14.6960 N.pl3       1 G97      -0.2206
     23 CAV        20.6607    1.8972  -13.4412 C.2         1 G97       0.1818
     24 CAJ        20.3601    3.2361  -13.2233 C.2         1 G97      -0.0280
     25 CAG        20.1530    3.4005  -11.8643 C.2         1 G97      -0.0243
     26 NAS        20.3189    2.1832  -11.2793 N.2         1 G97      -0.2412
     27 NAN        20.6394    1.3305  -12.2081 N.pl3       1 G97      -0.2006
     28 H1         22.6115   -1.9497  -19.6210 H           1 G97       0.0660
     29 H2         23.4776   -1.2972  -21.7668 H           1 G97       0.0628
     30 H3         23.9395    1.0362  -22.2492 H           1 G97       0.0649
     31 H4         23.5326    2.7198  -20.5554 H           1 G97       0.0628
     32 H5         22.6620    2.1071  -18.4063 H           1 G97       0.0660
     33 H6         21.3258   -4.0853  -16.3984 H           1 G97       0.0447
     34 H7         20.2190   -5.6429  -15.1926 H           1 G97       0.2290
     35 H8         20.5096   -7.7905  -12.6082 H           1 G97       0.0698
     36 H9         19.4950   -8.8707  -14.3736 H           1 G97       0.0686
     37 H10        19.0506   -7.3888  -15.0655 H           1 G97       0.0686
     38 H11        19.4299   -3.0596  -12.7826 H           1 G97       0.0570
     39 H12        19.7277   -0.7585  -13.2671 H           1 G97       0.0666
     40 H13        21.1946    2.2670  -15.2408 H           1 G97       0.2279
     41 H14        20.3158    3.9724  -13.9288 H           1 G97       0.0216
     42 H15        19.9158    4.2552  -11.3901 H           1 G97       0.0607
     43 H16        20.8806    0.4027  -12.0106 H           1 G97       0.2521
@<TRIPOS>BOND
     1     1     2  ar
     2     1     6  ar
     3     2     3  ar
     4     3     4  ar
     5     4     5  ar
     6     5     6  ar
     7     6     7   1
     8     7     8  ar
     9     7     9  ar
    10     8    21  ar
    11     9    10  ar
    12    10    11  ar
    13    10    20  ar
    14    11    12  ar
    15    12    13   1
    16    12    18  ar
    17    13    14  am
    18    14    15   2
    19    14    16   1
    20    16    17   2
    21    18    19  ar
    22    19    20  ar
    23    20    21  ar
    24    21    22   1
    25    22    23   1
    26    23    24   2
    27    23    27   1
    28    24    25   1
    29    25    26   2
    30    26    27   1
    31     1    28   1
    32     2    29   1
    33     3    30   1
    34     4    31   1
    35     5    32   1
    36    11    33   1
    37    13    34   1
    38    16    35   1
    39    17    36   1
    40    17    37   1
    41    18    38   1
    42    19    39   1
    43    22    40   1
    44    24    41   1
    45    25    42   1
    46    27    43   1
@<TRIPOS>SUBSTRUCTURE
     1  G97      1

