@<TRIPOS>MOLECULE
3huc_ligand_017
    43    46
SMALL
GAST_HUCK
****
This file was generated by PARSER (from files_GN.cpp)

@<TRIPOS>ATOM
      1 CAH        21.0743   -0.1798   -6.2274 C.ar        1 G97      -0.0465
      2 CAE        20.2901    0.8840   -5.7389 C.ar        1 G97      -0.0569
      3 CAD        20.4165    2.1675   -6.2968 C.ar        1 G97      -0.0580
      4 CAF        21.3238    2.3897   -7.3462 C.ar        1 G97      -0.0569
      5 CAI        22.1303    1.3368   -7.8207 C.ar        1 G97      -0.0465
      6 CAW        22.0136    0.0425   -7.2613 C.ar        1 G97       0.0141
      7 C2         22.8113   -1.0155   -7.7290 C.ar        1 G97       0.0921
      8 N1         24.1632   -0.9527   -7.6428 N.ar        1 G97      -0.2553
      9 N3         22.2521   -2.1410   -8.2406 N.ar        1 G97      -0.3009
     10 C4         23.0084   -3.1775   -8.6798 C.ar        1 G97       0.0255
     11 CAM        22.3620   -4.3135   -9.2096 C.ar        1 G97      -0.0253
     12 CAU        23.0995   -5.4309   -9.6510 C.ar        1 G97       0.0730
     13 NAQ        22.5379   -6.5454  -10.2170 N.am        1 G97      -0.2295
     14 CAT        21.3773   -7.1272   -9.9210 C.2         1 G97       0.2258
     15 OAB        20.6809   -6.7921   -8.9774 O.2         1 G97      -0.3745
     16 CAC        20.9733   -8.1860  -10.6497 C.2         1 G97       0.0150
     17 CAA        20.3211   -8.0535  -11.8097 C.2         1 G97      -0.0781
     18 CAK        24.5081   -5.3732   -9.5848 C.ar        1 G97      -0.0283
     19 CAL        25.1638   -4.2455   -9.0585 C.ar        1 G97      -0.0465
     20 C5         24.4303   -3.1257   -8.5952 C.ar        1 G97       0.0455
     21 C6         24.9995   -1.9456   -8.0346 C.ar        1 G97       0.1561
     22 NAR        26.3386   -1.8112   -7.8380 N.pl3       1 G97      -0.2206
     23 CAV        27.0212   -0.7947   -7.2292 C.2         1 G97       0.1818
     24 CAJ        26.6321    0.4045   -6.6346 C.2         1 G97      -0.0280
     25 CAG        27.7999    1.0114   -6.1910 C.2         1 G97      -0.0243
     26 NAS        28.8259    0.2066   -6.5021 N.2         1 G97      -0.2412
     27 NAN        28.3532   -0.8420   -7.1020 N.pl3       1 G97      -0.2006
     28 H1         20.9706   -1.1081   -5.8088 H           1 G97       0.0660
     29 H2         19.6345    0.7210   -4.9721 H           1 G97       0.0628
     30 H3         19.8503    2.9378   -5.9384 H           1 G97       0.0649
     31 H4         21.4058    3.3201   -7.7635 H           1 G97       0.0628
     32 H5         22.7833    1.5167   -8.5892 H           1 G97       0.0660
     33 H6         21.3437   -4.3069   -9.3008 H           1 G97       0.0447
     34 H7         23.0788   -6.9960  -10.8900 H           1 G97       0.2290
     35 H8         21.1701   -9.0967  -10.3077 H           1 G97       0.0698
     36 H9         20.0103   -8.8607  -12.2989 H           1 G97       0.0686
     37 H10        20.1282   -7.1599  -12.1980 H           1 G97       0.0686
     38 H11        25.0617   -6.1658   -9.9181 H           1 G97       0.0570
     39 H12        26.1838   -4.2489   -9.0269 H           1 G97       0.0666
     40 H13        26.8924   -2.5479   -8.1340 H           1 G97       0.2279
     41 H14        25.6929    0.7819   -6.5430 H           1 G97       0.0216
     42 H15        27.8792    1.9078   -5.7091 H           1 G97       0.0607
     43 H16        28.9006   -1.5745   -7.4267 H           1 G97       0.2521
@<TRIPOS>BOND
     1     1     2  ar
     2     1     6  ar
     3     2     3  ar
     4     3     4  ar
     5     4     5  ar
     6     5     6  ar
     7     6     7   1
     8     7     8  ar
     9     7     9  ar
    10     8    21  ar
    11     9    10  ar
    12    10    11  ar
    13    10    20  ar
    14    11    12  ar
    15    12    13   1
    16    12    18  ar
    17    13    14  am
    18    14    15   2
    19    14    16   1
    20    16    17   2
    21    18    19  ar
    22    19    20  ar
    23    20    21  ar
    24    21    22   1
    25    22    23   1
    26    23    24   2
    27    23    27   1
    28    24    25   1
    29    25    26   2
    30    26    27   1
    31     1    28   1
    32     2    29   1
    33     3    30   1
    34     4    31   1
    35     5    32   1
    36    11    33   1
    37    13    34   1
    38    16    35   1
    39    17    36   1
    40    17    37   1
    41    18    38   1
    42    19    39   1
    43    22    40   1
    44    24    41   1
    45    25    42   1
    46    27    43   1
@<TRIPOS>SUBSTRUCTURE
     1  G97      1

