@<TRIPOS>MOLECULE
3huc_ligand_056
    43    46
SMALL
GAST_HUCK
****
This file was generated by PARSER (from files_GN.cpp)

@<TRIPOS>ATOM
      1 CAH        20.6549    3.6442  -17.1380 C.ar        1 G97      -0.0465
      2 CAE        20.6982    5.0153  -17.4302 C.ar        1 G97      -0.0569
      3 CAD        21.8264    5.5680  -18.0659 C.ar        1 G97      -0.0580
      4 CAF        22.9021    4.7317  -18.4234 C.ar        1 G97      -0.0569
      5 CAI        22.8550    3.3568  -18.1449 C.ar        1 G97      -0.0465
      6 CAW        21.7326    2.7881  -17.4833 C.ar        1 G97       0.0141
      7 C2         21.6570    1.4057  -17.2076 C.ar        1 G97       0.0921
      8 N1         22.1256    0.4975  -18.0986 N.ar        1 G97      -0.2553
      9 N3         21.0723    0.9372  -16.0748 N.ar        1 G97      -0.3009
     10 C4         20.9395   -0.3899  -15.8198 C.ar        1 G97       0.0255
     11 CAM        20.3363   -0.8025  -14.6138 C.ar        1 G97      -0.0253
     12 CAU        20.1907   -2.1734  -14.3053 C.ar        1 G97       0.0730
     13 NAQ        19.6240   -2.4802  -13.0913 N.am        1 G97      -0.2295
     14 CAT        19.5819   -3.6267  -12.4178 C.2         1 G97       0.2258
     15 OAB        20.1535   -4.6490  -12.7776 O.2         1 G97      -0.3745
     16 CAC        18.9585   -3.6409  -11.2228 C.2         1 G97       0.0150
     17 CAA        17.9812   -4.5077  -10.9050 C.2         1 G97      -0.0781
     18 CAK        20.6086   -3.1209  -15.2728 C.ar        1 G97      -0.0283
     19 CAL        21.1988   -2.7182  -16.4835 C.ar        1 G97      -0.0465
     20 C5         21.3960   -1.3462  -16.7653 C.ar        1 G97       0.0455
     21 C6         22.0240   -0.8532  -17.9414 C.ar        1 G97       0.1561
     22 NAR        22.4999   -1.6851  -18.9027 N.pl3       1 G97      -0.2206
     23 CAV        23.1670   -1.3426  -20.0411 C.2         1 G97       0.1818
     24 CAJ        23.5899   -2.2462  -21.0049 C.2         1 G97      -0.0280
     25 CAG        24.2219   -1.4936  -21.9832 C.2         1 G97      -0.0243
     26 NAS        24.1793   -0.2060  -21.6101 N.2         1 G97      -0.2412
     27 NAN        23.5597   -0.1293  -20.4743 N.pl3       1 G97      -0.2006
     28 H1         19.8125    3.2645  -16.6959 H           1 G97       0.0660
     29 H2         19.9100    5.6161  -17.1850 H           1 G97       0.0628
     30 H3         21.8593    6.5642  -18.2731 H           1 G97       0.0649
     31 H4         23.7171    5.1303  -18.8923 H           1 G97       0.0628
     32 H5         23.6538    2.7759  -18.4186 H           1 G97       0.0660
     33 H6         20.0142   -0.0924  -13.9500 H           1 G97       0.0447
     34 H7         19.2079   -1.7279  -12.6384 H           1 G97       0.2290
     35 H8         19.2029   -2.9421  -10.5566 H           1 G97       0.0698
     36 H9         17.5332   -4.4453  -10.0223 H           1 G97       0.0686
     37 H10        17.6841   -5.2111  -11.5442 H           1 G97       0.0686
     38 H11        20.4787   -4.1207  -15.1189 H           1 G97       0.0570
     39 H12        21.4713   -3.4372  -17.1566 H           1 G97       0.0666
     40 H13        22.3609   -2.6341  -18.7670 H           1 G97       0.2279
     41 H14        23.4741   -3.2619  -20.9973 H           1 G97       0.0216
     42 H15        24.6579   -1.8533  -22.8331 H           1 G97       0.0607
     43 H16        23.4088    0.7002  -19.9986 H           1 G97       0.2521
@<TRIPOS>BOND
     1     1     2  ar
     2     1     6  ar
     3     2     3  ar
     4     3     4  ar
     5     4     5  ar
     6     5     6  ar
     7     6     7   1
     8     7     8  ar
     9     7     9  ar
    10     8    21  ar
    11     9    10  ar
    12    10    11  ar
    13    10    20  ar
    14    11    12  ar
    15    12    13   1
    16    12    18  ar
    17    13    14  am
    18    14    15   2
    19    14    16   1
    20    16    17   2
    21    18    19  ar
    22    19    20  ar
    23    20    21  ar
    24    21    22   1
    25    22    23   1
    26    23    24   2
    27    23    27   1
    28    24    25   1
    29    25    26   2
    30    26    27   1
    31     1    28   1
    32     2    29   1
    33     3    30   1
    34     4    31   1
    35     5    32   1
    36    11    33   1
    37    13    34   1
    38    16    35   1
    39    17    36   1
    40    17    37   1
    41    18    38   1
    42    19    39   1
    43    22    40   1
    44    24    41   1
    45    25    42   1
    46    27    43   1
@<TRIPOS>SUBSTRUCTURE
     1  G97      1

