@<TRIPOS>MOLECULE
3huc_ligand_035
    43    46
SMALL
GAST_HUCK
****
This file was generated by PARSER (from files_GN.cpp)

@<TRIPOS>ATOM
      1 CAH        21.2089    2.8981  -15.5407 C.ar        1 G97      -0.0465
      2 CAE        21.2690    4.3002  -15.6509 C.ar        1 G97      -0.0569
      3 CAD        21.5413    4.8984  -16.8930 C.ar        1 G97      -0.0580
      4 CAF        21.7543    4.0937  -18.0238 C.ar        1 G97      -0.0569
      5 CAI        21.6950    2.6926  -17.9120 C.ar        1 G97      -0.0465
      6 CAW        21.4208    2.0645  -16.6685 C.ar        1 G97       0.0141
      7 C2         21.3472    0.6444  -16.5655 C.ar        1 G97       0.0921
      8 N1         20.8178    0.0288  -15.4738 N.ar        1 G97      -0.2553
      9 N3         21.7842   -0.1546  -17.5733 N.ar        1 G97      -0.3009
     10 C4         21.7073   -1.5064  -17.5297 C.ar        1 G97       0.0255
     11 CAM        22.1860   -2.2549  -18.6222 C.ar        1 G97      -0.0253
     12 CAU        22.1000   -3.6674  -18.6257 C.ar        1 G97       0.0730
     13 NAQ        22.5863   -4.4682  -19.6264 N.am        1 G97      -0.2295
     14 CAT        22.7418   -4.1950  -20.9164 C.2         1 G97       0.2258
     15 OAB        22.3267   -3.1734  -21.4472 O.2         1 G97      -0.3745
     16 CAC        23.2598   -5.1352  -21.7266 C.2         1 G97       0.0150
     17 CAA        24.5703   -5.4009  -21.7799 C.2         1 G97      -0.0781
     18 CAK        21.5469   -4.3057  -17.4945 C.ar        1 G97      -0.0283
     19 CAL        21.0715   -3.5618  -16.3971 C.ar        1 G97      -0.0465
     20 C5         21.1448   -2.1493  -16.3947 C.ar        1 G97       0.0455
     21 C6         20.6920   -1.3208  -15.3335 C.ar        1 G97       0.1561
     22 NAR        20.1381   -1.8500  -14.2113 N.pl3       1 G97      -0.2206
     23 CAV        19.6314   -1.1881  -13.1361 C.2         1 G97       0.1818
     24 CAJ        19.0911   -1.8224  -12.0267 C.2         1 G97      -0.0280
     25 CAG        18.6828   -0.8116  -11.1715 C.2         1 G97      -0.0243
     26 NAS        18.9682    0.3650  -11.7500 N.2         1 G97      -0.2412
     27 NAN        19.5232    0.1322  -12.8995 N.pl3       1 G97      -0.2006
     28 H1         21.0193    2.4957  -14.6196 H           1 G97       0.0660
     29 H2         21.1182    4.8854  -14.8261 H           1 G97       0.0628
     30 H3         21.5831    5.9169  -16.9738 H           1 G97       0.0649
     31 H4         21.9482    4.5268  -18.9299 H           1 G97       0.0628
     32 H5         21.8430    2.1374  -18.7583 H           1 G97       0.0660
     33 H6         22.6216   -1.7574  -19.3997 H           1 G97       0.0447
     34 H7         22.8168   -5.3728  -19.3596 H           1 G97       0.2290
     35 H8         22.6424   -5.6233  -22.3336 H           1 G97       0.0698
     36 H9         24.9134   -6.0813  -22.4145 H           1 G97       0.0686
     37 H10        25.2249   -4.9204  -21.2051 H           1 G97       0.0686
     38 H11        21.4860   -5.3293  -17.4600 H           1 G97       0.0570
     39 H12        20.6778   -4.0663  -15.6032 H           1 G97       0.0666
     40 H13        20.0864   -2.8162  -14.1656 H           1 G97       0.2279
     41 H14        19.0073   -2.8275  -11.8678 H           1 G97       0.0216
     42 H15        18.2395   -0.9367  -10.2594 H           1 G97       0.0607
     43 H16        19.8164    0.8273  -13.5078 H           1 G97       0.2521
@<TRIPOS>BOND
     1     1     2  ar
     2     1     6  ar
     3     2     3  ar
     4     3     4  ar
     5     4     5  ar
     6     5     6  ar
     7     6     7   1
     8     7     8  ar
     9     7     9  ar
    10     8    21  ar
    11     9    10  ar
    12    10    11  ar
    13    10    20  ar
    14    11    12  ar
    15    12    13   1
    16    12    18  ar
    17    13    14  am
    18    14    15   2
    19    14    16   1
    20    16    17   2
    21    18    19  ar
    22    19    20  ar
    23    20    21  ar
    24    21    22   1
    25    22    23   1
    26    23    24   2
    27    23    27   1
    28    24    25   1
    29    25    26   2
    30    26    27   1
    31     1    28   1
    32     2    29   1
    33     3    30   1
    34     4    31   1
    35     5    32   1
    36    11    33   1
    37    13    34   1
    38    16    35   1
    39    17    36   1
    40    17    37   1
    41    18    38   1
    42    19    39   1
    43    22    40   1
    44    24    41   1
    45    25    42   1
    46    27    43   1
@<TRIPOS>SUBSTRUCTURE
     1  G97      1

