@<TRIPOS>MOLECULE
3huc_ligand_044
    43    46
SMALL
GAST_HUCK
****
This file was generated by PARSER (from files_GN.cpp)

@<TRIPOS>ATOM
      1 CAH        25.0927   -2.7207  -10.1546 C.ar        1 G97      -0.0465
      2 CAE        26.2740   -2.2920   -9.5254 C.ar        1 G97      -0.0569
      3 CAD        26.2242   -1.2780   -8.5546 C.ar        1 G97      -0.0580
      4 CAF        24.9900   -0.7113   -8.1943 C.ar        1 G97      -0.0569
      5 CAI        23.8069   -1.1473   -8.8156 C.ar        1 G97      -0.0465
      6 CAW        23.8375   -2.1446   -9.8258 C.ar        1 G97       0.0141
      7 C2         22.6581   -2.5113  -10.5299 C.ar        1 G97       0.0921
      8 N1         21.4238   -2.2568  -10.0231 N.ar        1 G97      -0.2553
      9 N3         22.7255   -3.0007  -11.7941 N.ar        1 G97      -0.3009
     10 C4         21.6256   -3.3084  -12.5172 C.ar        1 G97       0.0255
     11 CAM        21.7725   -3.7778  -13.8348 C.ar        1 G97      -0.0253
     12 CAU        20.6377   -4.1378  -14.5897 C.ar        1 G97       0.0730
     13 NAQ        20.7686   -4.5017  -15.8977 N.am        1 G97      -0.2295
     14 CAT        21.2805   -3.7412  -16.8643 C.2         1 G97       0.2258
     15 OAB        21.5978   -2.5797  -16.6286 O.2         1 G97      -0.3745
     16 CAC        21.4150   -4.2474  -18.1235 C.2         1 G97       0.0150
     17 CAA        22.1059   -3.6752  -19.1222 C.2         1 G97      -0.0781
     18 CAK        19.3686   -4.1242  -13.9727 C.ar        1 G97      -0.0283
     19 CAL        19.2148   -3.6036  -12.6733 C.ar        1 G97      -0.0465
     20 C5         20.3337   -3.1255  -11.9587 C.ar        1 G97       0.0455
     21 C6         20.2697   -2.5016  -10.6859 C.ar        1 G97       0.1561
     22 NAR        19.1820   -1.9438  -10.1007 N.pl3       1 G97      -0.2206
     23 CAV        18.4909   -1.0017  -10.7953 C.2         1 G97       0.1818
     24 CAJ        17.3047   -1.0586  -11.5126 C.2         1 G97      -0.0280
     25 CAG        17.0979    0.2208  -12.0072 C.2         1 G97      -0.0243
     26 NAS        18.1082    0.9971  -11.5897 N.2         1 G97      -0.2412
     27 NAN        18.9105    0.2715  -10.8747 N.pl3       1 G97      -0.2006
     28 H1         25.1645   -3.4520  -10.8653 H           1 G97       0.0660
     29 H2         27.1702   -2.7077   -9.7888 H           1 G97       0.0628
     30 H3         27.0857   -0.9505   -8.1134 H           1 G97       0.0649
     31 H4         24.9512    0.0260   -7.4868 H           1 G97       0.0628
     32 H5         22.9267   -0.7053   -8.5413 H           1 G97       0.0660
     33 H6         22.7049   -3.8302  -14.2507 H           1 G97       0.0447
     34 H7         20.4028   -5.3624  -16.1532 H           1 G97       0.2290
     35 H8         20.9907   -5.1256  -18.3239 H           1 G97       0.0698
     36 H9         22.1611   -4.1167  -20.0100 H           1 G97       0.0686
     37 H10        22.5667   -2.8023  -19.0067 H           1 G97       0.0686
     38 H11        18.5428   -4.4569  -14.4749 H           1 G97       0.0570
     39 H12        18.2875   -3.6067  -12.2470 H           1 G97       0.0666
     40 H13        19.3413   -1.6750   -9.1786 H           1 G97       0.2279
     41 H14        16.7098   -1.8785  -11.6487 H           1 G97       0.0216
     42 H15        16.3185    0.5278  -12.5936 H           1 G97       0.0607
     43 H16        19.7265    0.6016  -10.4685 H           1 G97       0.2521
@<TRIPOS>BOND
     1     1     2  ar
     2     1     6  ar
     3     2     3  ar
     4     3     4  ar
     5     4     5  ar
     6     5     6  ar
     7     6     7   1
     8     7     8  ar
     9     7     9  ar
    10     8    21  ar
    11     9    10  ar
    12    10    11  ar
    13    10    20  ar
    14    11    12  ar
    15    12    13   1
    16    12    18  ar
    17    13    14  am
    18    14    15   2
    19    14    16   1
    20    16    17   2
    21    18    19  ar
    22    19    20  ar
    23    20    21  ar
    24    21    22   1
    25    22    23   1
    26    23    24   2
    27    23    27   1
    28    24    25   1
    29    25    26   2
    30    26    27   1
    31     1    28   1
    32     2    29   1
    33     3    30   1
    34     4    31   1
    35     5    32   1
    36    11    33   1
    37    13    34   1
    38    16    35   1
    39    17    36   1
    40    17    37   1
    41    18    38   1
    42    19    39   1
    43    22    40   1
    44    24    41   1
    45    25    42   1
    46    27    43   1
@<TRIPOS>SUBSTRUCTURE
     1  G97      1

