@<TRIPOS>MOLECULE
3huc_ligand_024
    43    46
SMALL
GAST_HUCK
****
This file was generated by PARSER (from files_GN.cpp)

@<TRIPOS>ATOM
      1 CAH        20.5715    6.8375  -16.5155 C.ar        1 G97      -0.0465
      2 CAE        20.5549    8.2412  -16.5974 C.ar        1 G97      -0.0569
      3 CAD        21.7061    8.9390  -17.0033 C.ar        1 G97      -0.0580
      4 CAF        22.8748    8.2282  -17.3321 C.ar        1 G97      -0.0569
      5 CAI        22.8861    6.8213  -17.2677 C.ar        1 G97      -0.0465
      6 CAW        21.7344    6.1054  -16.8564 C.ar        1 G97       0.0141
      7 C2         21.7282    4.6875  -16.8093 C.ar        1 G97       0.0921
      8 N1         21.0487    4.0166  -15.8396 N.ar        1 G97      -0.2553
      9 N3         22.4105    3.9540  -17.7232 N.ar        1 G97      -0.3009
     10 C4         22.3828    2.6006  -17.7324 C.ar        1 G97       0.0255
     11 CAM        23.0586    1.9147  -18.7607 C.ar        1 G97      -0.0253
     12 CAU        22.9360    0.5122  -18.8958 C.ar        1 G97       0.0730
     13 NAQ        23.5385   -0.2264  -19.8740 N.am        1 G97      -0.2295
     14 CAT        23.8848    0.1199  -21.1061 C.2         1 G97       0.2258
     15 OAB        23.6205    1.2116  -21.5923 O.2         1 G97      -0.3745
     16 CAC        24.3701   -0.8183  -21.9400 C.2         1 G97       0.0150
     17 CAA        25.5846   -1.3722  -21.8051 C.2         1 G97      -0.0781
     18 CAK        22.1447   -0.1889  -17.9641 C.ar        1 G97      -0.0283
     19 CAL        21.5016    0.4916  -16.9131 C.ar        1 G97      -0.0465
     20 C5         21.6440    1.8887  -16.7491 C.ar        1 G97       0.0455
     21 C6         21.0120    2.6642  -15.7337 C.ar        1 G97       0.1561
     22 NAR        20.3674    2.2545  -14.6146 N.pl3       1 G97      -0.2206
     23 CAV        20.5121    1.1194  -13.8872 C.2         1 G97       0.1818
     24 CAJ        21.5909    0.2559  -13.7682 C.2         1 G97      -0.0280
     25 CAG        21.2345   -0.6675  -12.8005 C.2         1 G97      -0.0243
     26 NAS        20.0080   -0.3486  -12.3508 N.2         1 G97      -0.2412
     27 NAN        19.6014    0.7127  -12.9843 N.pl3       1 G97      -0.2006
     28 H1         19.7161    6.3538  -16.2299 H           1 G97       0.0660
     29 H2         19.7048    8.7562  -16.3645 H           1 G97       0.0628
     30 H3         21.6924    9.9610  -17.0596 H           1 G97       0.0649
     31 H4         23.7117    8.7358  -17.6221 H           1 G97       0.0628
     32 H5         23.7483    6.3286  -17.5115 H           1 G97       0.0660
     33 H6         23.6347    2.4500  -19.4115 H           1 G97       0.0447
     34 H7         23.6633   -1.1724  -19.6608 H           1 G97       0.2290
     35 H8         23.8054   -1.1129  -22.6997 H           1 G97       0.0698
     36 H9         25.8890   -2.0582  -22.4552 H           1 G97       0.0686
     37 H10        26.2092   -1.0947  -21.0797 H           1 G97       0.0686
     38 H11        22.0011   -1.1974  -18.0577 H           1 G97       0.0570
     39 H12        20.8852   -0.0521  -16.3033 H           1 G97       0.0666
     40 H13        19.8210    2.9366  -14.1860 H           1 G97       0.2279
     41 H14        22.4714    0.2938  -14.2765 H           1 G97       0.0216
     42 H15        21.8087   -1.4454  -12.4752 H           1 G97       0.0607
     43 H16        18.7565    1.1556  -12.8271 H           1 G97       0.2521
@<TRIPOS>BOND
     1     1     2  ar
     2     1     6  ar
     3     2     3  ar
     4     3     4  ar
     5     4     5  ar
     6     5     6  ar
     7     6     7   1
     8     7     8  ar
     9     7     9  ar
    10     8    21  ar
    11     9    10  ar
    12    10    11  ar
    13    10    20  ar
    14    11    12  ar
    15    12    13   1
    16    12    18  ar
    17    13    14  am
    18    14    15   2
    19    14    16   1
    20    16    17   2
    21    18    19  ar
    22    19    20  ar
    23    20    21  ar
    24    21    22   1
    25    22    23   1
    26    23    24   2
    27    23    27   1
    28    24    25   1
    29    25    26   2
    30    26    27   1
    31     1    28   1
    32     2    29   1
    33     3    30   1
    34     4    31   1
    35     5    32   1
    36    11    33   1
    37    13    34   1
    38    16    35   1
    39    17    36   1
    40    17    37   1
    41    18    38   1
    42    19    39   1
    43    22    40   1
    44    24    41   1
    45    25    42   1
    46    27    43   1
@<TRIPOS>SUBSTRUCTURE
     1  G97      1

