@<TRIPOS>MOLECULE
3huc_ligand_051
    43    46
SMALL
GAST_HUCK
****
This file was generated by PARSER (from files_GN.cpp)

@<TRIPOS>ATOM
      1 CAH        20.1362   -5.1690  -10.8532 C.ar        1 G97      -0.0465
      2 CAE        20.2139   -6.3402  -10.0702 C.ar        1 G97      -0.0569
      3 CAD        21.4701   -6.8420   -9.6752 C.ar        1 G97      -0.0580
      4 CAF        22.6455   -6.1614  -10.0450 C.ar        1 G97      -0.0569
      5 CAI        22.5673   -4.9856  -10.8188 C.ar        1 G97      -0.0465
      6 CAW        21.3140   -4.4899  -11.2386 C.ar        1 G97       0.0141
      7 C2         21.2362   -3.3777  -12.0832 C.ar        1 G97       0.0921
      8 N1         21.2008   -3.5525  -13.4264 N.ar        1 G97      -0.2553
      9 N3         21.2016   -2.1301  -11.5656 N.ar        1 G97      -0.3009
     10 C4         21.1247   -1.0329  -12.3609 C.ar        1 G97       0.0255
     11 CAM        21.0741    0.2442  -11.7682 C.ar        1 G97      -0.0253
     12 CAU        20.9810    1.4108  -12.5651 C.ar        1 G97       0.0730
     13 NAQ        20.9481    2.5929  -11.8802 N.am        1 G97      -0.2295
     14 CAT        20.5465    3.7996  -12.2513 C.2         1 G97       0.2258
     15 OAB        20.0773    4.0463  -13.3559 O.2         1 G97      -0.3745
     16 CAC        20.6200    4.7919  -11.3379 C.2         1 G97       0.0150
     17 CAA        19.5387    5.3691  -10.7974 C.2         1 G97      -0.0781
     18 CAK        20.9764    1.2637  -13.9756 C.ar        1 G97      -0.0283
     19 CAL        21.0237   -0.0123  -14.5691 C.ar        1 G97      -0.0465
     20 C5         21.0904   -1.1846  -13.7733 C.ar        1 G97       0.0455
     21 C6         21.1332   -2.5091  -14.3004 C.ar        1 G97       0.1561
     22 NAR        21.1299   -2.7337  -15.6340 N.pl3       1 G97      -0.2206
     23 CAV        21.1873   -3.9179  -16.3058 C.2         1 G97       0.1818
     24 CAJ        21.1009   -5.2502  -15.9053 C.2         1 G97      -0.0280
     25 CAG        21.2233   -5.9971  -17.0611 C.2         1 G97      -0.0243
     26 NAS        21.3735   -5.1600  -18.0991 N.2         1 G97      -0.2412
     27 NAN        21.3508   -3.9417  -17.6420 N.pl3       1 G97      -0.2006
     28 H1         19.2163   -4.8236  -11.1457 H           1 G97       0.0660
     29 H2         19.3613   -6.8287   -9.8022 H           1 G97       0.0628
     30 H3         21.5255   -7.6938   -9.1242 H           1 G97       0.0649
     31 H4         23.5545   -6.5265   -9.7638 H           1 G97       0.0628
     32 H5         23.4368   -4.5143  -11.0987 H           1 G97       0.0660
     33 H6         21.0920    0.3250  -10.7493 H           1 G97       0.0447
     34 H7         21.2278    2.5252  -10.9502 H           1 G97       0.2290
     35 H8         21.5182    5.0518  -11.0055 H           1 G97       0.0698
     36 H9         19.6476    6.0602  -10.0928 H           1 G97       0.0686
     37 H10        18.6222    5.1023  -11.0602 H           1 G97       0.0686
     38 H11        20.9604    2.0808  -14.5821 H           1 G97       0.0570
     39 H12        21.0112   -0.0723  -15.5866 H           1 G97       0.0666
     40 H13        21.1104   -1.9474  -16.1949 H           1 G97       0.2279
     41 H14        20.9582   -5.6313  -14.9655 H           1 G97       0.0216
     42 H15        21.1868   -7.0187  -17.1073 H           1 G97       0.0607
     43 H16        21.4546   -3.1509  -18.1911 H           1 G97       0.2521
@<TRIPOS>BOND
     1     1     2  ar
     2     1     6  ar
     3     2     3  ar
     4     3     4  ar
     5     4     5  ar
     6     5     6  ar
     7     6     7   1
     8     7     8  ar
     9     7     9  ar
    10     8    21  ar
    11     9    10  ar
    12    10    11  ar
    13    10    20  ar
    14    11    12  ar
    15    12    13   1
    16    12    18  ar
    17    13    14  am
    18    14    15   2
    19    14    16   1
    20    16    17   2
    21    18    19  ar
    22    19    20  ar
    23    20    21  ar
    24    21    22   1
    25    22    23   1
    26    23    24   2
    27    23    27   1
    28    24    25   1
    29    25    26   2
    30    26    27   1
    31     1    28   1
    32     2    29   1
    33     3    30   1
    34     4    31   1
    35     5    32   1
    36    11    33   1
    37    13    34   1
    38    16    35   1
    39    17    36   1
    40    17    37   1
    41    18    38   1
    42    19    39   1
    43    22    40   1
    44    24    41   1
    45    25    42   1
    46    27    43   1
@<TRIPOS>SUBSTRUCTURE
     1  G97      1

