@<TRIPOS>MOLECULE
3huc_ligand_081
    43    46
SMALL
GAST_HUCK
****
This file was generated by PARSER (from files_GN.cpp)

@<TRIPOS>ATOM
      1 CAH        21.5609   -0.6947  -14.3012 C.ar        1 G97      -0.0465
      2 CAE        21.7428   -1.0196  -15.6610 C.ar        1 G97      -0.0569
      3 CAD        21.1172   -2.1601  -16.1960 C.ar        1 G97      -0.0580
      4 CAF        20.3102   -2.9669  -15.3802 C.ar        1 G97      -0.0569
      5 CAI        20.1419   -2.6429  -14.0205 C.ar        1 G97      -0.0465
      6 CAW        20.7602   -1.5000  -13.4497 C.ar        1 G97       0.0141
      7 C2         20.5558   -1.1532  -12.0806 C.ar        1 G97       0.0921
      8 N1         20.0379   -2.0464  -11.1934 N.ar        1 G97      -0.2553
      9 N3         20.8493    0.0824  -11.6082 N.ar        1 G97      -0.3009
     10 C4         20.5808    0.4583  -10.3324 C.ar        1 G97       0.0255
     11 CAM        20.8669    1.7804   -9.9569 C.ar        1 G97      -0.0253
     12 CAU        20.5276    2.2529   -8.6691 C.ar        1 G97       0.0730
     13 NAQ        20.7699    3.5243   -8.2283 N.am        1 G97      -0.2295
     14 CAT        21.7340    4.3697   -8.5763 C.2         1 G97       0.2258
     15 OAB        22.6397    4.0373   -9.3309 O.2         1 G97      -0.3745
     16 CAC        21.8126    5.6204   -8.0568 C.2         1 G97       0.0150
     17 CAA        20.7515    6.3752   -7.7325 C.2         1 G97      -0.0781
     18 CAK        19.8074    1.3936   -7.8099 C.ar        1 G97      -0.0283
     19 CAL        19.5243    0.0682   -8.1890 C.ar        1 G97      -0.0465
     20 C5         19.9675   -0.4554   -9.4261 C.ar        1 G97       0.0455
     21 C6         19.7766   -1.7863   -9.8820 C.ar        1 G97       0.1561
     22 NAR        19.3559   -2.9008   -9.2367 N.pl3       1 G97      -0.2206
     23 CAV        19.2493   -3.2202   -7.9258 C.2         1 G97       0.1818
     24 CAJ        19.9196   -2.7712   -6.7885 C.2         1 G97      -0.0280
     25 CAG        19.4295   -3.5402   -5.7433 C.2         1 G97      -0.0243
     26 NAS        18.5652   -4.4422   -6.2464 N.2         1 G97      -0.2412
     27 NAN        18.4816   -4.2545   -7.5277 N.pl3       1 G97      -0.2006
     28 H1         22.0363    0.1335  -13.9438 H           1 G97       0.0660
     29 H2         22.3245   -0.4292  -16.2617 H           1 G97       0.0628
     30 H3         21.2429   -2.3998  -17.1825 H           1 G97       0.0649
     31 H4         19.8480   -3.7936  -15.7720 H           1 G97       0.0628
     32 H5         19.5390   -3.2426  -13.4532 H           1 G97       0.0660
     33 H6         21.2893    2.4128  -10.6440 H           1 G97       0.0447
     34 H7         20.1897    3.8307   -7.5163 H           1 G97       0.2290
     35 H8         22.7120    6.0339   -7.9516 H           1 G97       0.0698
     36 H9         20.8843    7.2974   -7.3847 H           1 G97       0.0686
     37 H10        19.8212    6.0471   -7.8525 H           1 G97       0.0686
     38 H11        19.4866    1.7305   -6.8949 H           1 G97       0.0570
     39 H12        18.9530   -0.5002   -7.5693 H           1 G97       0.0666
     40 H13        19.1454   -3.6322   -9.8317 H           1 G97       0.2279
     41 H14        20.6322   -2.0415   -6.6976 H           1 G97       0.0216
     42 H15        19.6904   -3.4638   -4.7565 H           1 G97       0.0607
     43 H16        17.9234   -4.7832   -8.1234 H           1 G97       0.2521
@<TRIPOS>BOND
     1     1     2  ar
     2     1     6  ar
     3     2     3  ar
     4     3     4  ar
     5     4     5  ar
     6     5     6  ar
     7     6     7   1
     8     7     8  ar
     9     7     9  ar
    10     8    21  ar
    11     9    10  ar
    12    10    11  ar
    13    10    20  ar
    14    11    12  ar
    15    12    13   1
    16    12    18  ar
    17    13    14  am
    18    14    15   2
    19    14    16   1
    20    16    17   2
    21    18    19  ar
    22    19    20  ar
    23    20    21  ar
    24    21    22   1
    25    22    23   1
    26    23    24   2
    27    23    27   1
    28    24    25   1
    29    25    26   2
    30    26    27   1
    31     1    28   1
    32     2    29   1
    33     3    30   1
    34     4    31   1
    35     5    32   1
    36    11    33   1
    37    13    34   1
    38    16    35   1
    39    17    36   1
    40    17    37   1
    41    18    38   1
    42    19    39   1
    43    22    40   1
    44    24    41   1
    45    25    42   1
    46    27    43   1
@<TRIPOS>SUBSTRUCTURE
     1  G97      1

