@<TRIPOS>MOLECULE
3huc_ligand_012
    43    46
SMALL
GAST_HUCK
****
This file was generated by PARSER (from files_GN.cpp)

@<TRIPOS>ATOM
      1 CAH        23.0809    0.6078  -21.4256 C.ar        1 G97      -0.0465
      2 CAE        23.4593   -0.4738  -22.2465 C.ar        1 G97      -0.0569
      3 CAD        24.2738   -1.4983  -21.7357 C.ar        1 G97      -0.0580
      4 CAF        24.6844   -1.4628  -20.3937 C.ar        1 G97      -0.0569
      5 CAI        24.2831   -0.4011  -19.5601 C.ar        1 G97      -0.0465
      6 CAW        23.4910    0.6536  -20.0726 C.ar        1 G97       0.0141
      7 C2         23.0825    1.7044  -19.2294 C.ar        1 G97       0.0921
      8 N1         22.4480    1.4254  -18.0672 N.ar        1 G97      -0.2553
      9 N3         23.3300    3.0009  -19.5459 N.ar        1 G97      -0.3009
     10 C4         22.9520    4.0239  -18.7288 C.ar        1 G97       0.0255
     11 CAM        23.2642    5.3552  -19.0792 C.ar        1 G97      -0.0253
     12 CAU        22.8820    6.4394  -18.2510 C.ar        1 G97       0.0730
     13 NAQ        23.2312    7.7047  -18.6689 N.am        1 G97      -0.2295
     14 CAT        23.2846    8.8459  -17.9904 C.2         1 G97       0.2258
     15 OAB        23.0698    8.9348  -16.7914 O.2         1 G97      -0.3745
     16 CAC        23.5471    9.9959  -18.6320 C.2         1 G97       0.0150
     17 CAA        24.7780   10.3981  -18.9737 C.2         1 G97      -0.0781
     18 CAK        22.1282    6.1544  -17.0862 C.ar        1 G97      -0.0283
     19 CAL        21.8234    4.8300  -16.7248 C.ar        1 G97      -0.0465
     20 C5         22.2509    3.7435  -17.5269 C.ar        1 G97       0.0455
     21 C6         22.0134    2.3789  -17.2016 C.ar        1 G97       0.1561
     22 NAR        21.3765    2.0366  -16.0576 N.pl3       1 G97      -0.2206
     23 CAV        21.0354    0.8019  -15.6153 C.2         1 G97       0.1818
     24 CAJ        20.3540    0.6117  -14.4281 C.2         1 G97      -0.0280
     25 CAG        20.1637   -0.7541  -14.3119 C.2         1 G97      -0.0243
     26 NAS        20.7097   -1.3432  -15.3890 N.2         1 G97      -0.2412
     27 NAN        21.2200   -0.4200  -16.1489 N.pl3       1 G97      -0.2006
     28 H1         22.4821    1.3434  -21.8138 H           1 G97       0.0660
     29 H2         23.1343   -0.5149  -23.2177 H           1 G97       0.0628
     30 H3         24.5589   -2.2741  -22.3358 H           1 G97       0.0649
     31 H4         25.2709   -2.2120  -20.0153 H           1 G97       0.0628
     32 H5         24.5892   -0.3940  -18.5838 H           1 G97       0.0660
     33 H6         23.7860    5.5373  -19.9391 H           1 G97       0.0447
     34 H7         23.5140    7.7683  -19.5939 H           1 G97       0.2290
     35 H8         22.7833   10.6180  -18.7992 H           1 G97       0.0698
     36 H9         24.9111   11.2890  -19.3829 H           1 G97       0.0686
     37 H10        25.5734    9.8331  -18.8082 H           1 G97       0.0686
     38 H11        21.7721    6.8980  -16.4934 H           1 G97       0.0570
     39 H12        21.2853    4.6735  -15.8698 H           1 G97       0.0666
     40 H13        21.1151    2.7660  -15.4766 H           1 G97       0.2279
     41 H14        20.0437    1.3321  -13.7744 H           1 G97       0.0216
     42 H15        19.6841   -1.2298  -13.5470 H           1 G97       0.0607
     43 H16        21.6604   -0.5972  -16.9952 H           1 G97       0.2521
@<TRIPOS>BOND
     1     1     2  ar
     2     1     6  ar
     3     2     3  ar
     4     3     4  ar
     5     4     5  ar
     6     5     6  ar
     7     6     7   1
     8     7     8  ar
     9     7     9  ar
    10     8    21  ar
    11     9    10  ar
    12    10    11  ar
    13    10    20  ar
    14    11    12  ar
    15    12    13   1
    16    12    18  ar
    17    13    14  am
    18    14    15   2
    19    14    16   1
    20    16    17   2
    21    18    19  ar
    22    19    20  ar
    23    20    21  ar
    24    21    22   1
    25    22    23   1
    26    23    24   2
    27    23    27   1
    28    24    25   1
    29    25    26   2
    30    26    27   1
    31     1    28   1
    32     2    29   1
    33     3    30   1
    34     4    31   1
    35     5    32   1
    36    11    33   1
    37    13    34   1
    38    16    35   1
    39    17    36   1
    40    17    37   1
    41    18    38   1
    42    19    39   1
    43    22    40   1
    44    24    41   1
    45    25    42   1
    46    27    43   1
@<TRIPOS>SUBSTRUCTURE
     1  G97      1

