@<TRIPOS>MOLECULE
3huc_ligand_052
    43    46
SMALL
GAST_HUCK
****
This file was generated by PARSER (from files_GN.cpp)

@<TRIPOS>ATOM
      1 CAH        23.0758    8.7624  -15.5943 C.ar        1 G97      -0.0465
      2 CAE        23.2993    9.8823  -14.7701 C.ar        1 G97      -0.0569
      3 CAD        22.9903    9.8182  -13.4053 C.ar        1 G97      -0.0580
      4 CAF        22.4593    8.6485  -12.8580 C.ar        1 G97      -0.0569
      5 CAI        22.2280    7.5295  -13.6830 C.ar        1 G97      -0.0465
      6 CAW        22.5204    7.5710  -15.0693 C.ar        1 G97       0.0141
      7 C2         22.2209    6.4669  -15.9251 C.ar        1 G97       0.0921
      8 N1         21.7438    5.2895  -15.4499 N.ar        1 G97      -0.2553
      9 N3         22.4136    6.5072  -17.2608 N.ar        1 G97      -0.3009
     10 C4         22.0795    5.5018  -18.1086 C.ar        1 G97       0.0255
     11 CAM        22.2687    5.6832  -19.4900 C.ar        1 G97      -0.0253
     12 CAU        21.7243    4.7822  -20.4282 C.ar        1 G97       0.0730
     13 NAQ        22.0006    5.0278  -21.7575 N.am        1 G97      -0.2295
     14 CAT        21.7066    4.3289  -22.8517 C.2         1 G97       0.2258
     15 OAB        21.0381    3.3052  -22.8719 O.2         1 G97      -0.3745
     16 CAC        22.2182    4.7353  -24.0323 C.2         1 G97       0.0150
     17 CAA        23.5132    4.5722  -24.3434 C.2         1 G97      -0.0781
     18 CAK        20.8915    3.7431  -19.9388 C.ar        1 G97      -0.0283
     19 CAL        20.7972    3.4984  -18.5528 C.ar        1 G97      -0.0465
     20 C5         21.4458    4.3362  -17.6186 C.ar        1 G97       0.0455
     21 C6         21.4153    4.2021  -16.1988 C.ar        1 G97       0.1561
     22 NAR        21.1755    3.1451  -15.3772 N.pl3       1 G97      -0.2206
     23 CAV        21.3759    1.8064  -15.5120 C.2         1 G97       0.1818
     24 CAJ        21.6155    0.9402  -16.5692 C.2         1 G97      -0.0280
     25 CAG        21.7055   -0.3363  -16.0151 C.2         1 G97      -0.0243
     26 NAS        21.6007   -0.2209  -14.6793 N.2         1 G97      -0.2412
     27 NAN        21.3947    1.0310  -14.3998 N.pl3       1 G97      -0.2006
     28 H1         23.3165    8.8581  -16.5886 H           1 G97       0.0660
     29 H2         23.6956   10.7338  -15.1643 H           1 G97       0.0628
     30 H3         23.1580   10.6320  -12.8083 H           1 G97       0.0649
     31 H4         22.2514    8.5941  -11.8581 H           1 G97       0.0628
     32 H5         21.8182    6.6966  -13.2480 H           1 G97       0.0660
     33 H6         22.8075    6.4842  -19.8227 H           1 G97       0.0447
     34 H7         22.5673    5.7968  -21.9228 H           1 G97       0.2290
     35 H8         21.6026    5.1479  -24.7061 H           1 G97       0.0698
     36 H9         23.8517    4.8587  -25.2377 H           1 G97       0.0686
     37 H10        24.1489    4.1460  -23.7044 H           1 G97       0.0686
     38 H11        20.3601    3.1318  -20.5645 H           1 G97       0.0570
     39 H12        20.1934    2.7872  -18.1933 H           1 G97       0.0666
     40 H13        21.0863    3.4029  -14.4394 H           1 G97       0.2279
     41 H14        21.6896    1.1295  -17.5927 H           1 G97       0.0216
     42 H15        21.8758   -1.2033  -16.5410 H           1 G97       0.0607
     43 H16        21.2362    1.3501  -13.4919 H           1 G97       0.2521
@<TRIPOS>BOND
     1     1     2  ar
     2     1     6  ar
     3     2     3  ar
     4     3     4  ar
     5     4     5  ar
     6     5     6  ar
     7     6     7   1
     8     7     8  ar
     9     7     9  ar
    10     8    21  ar
    11     9    10  ar
    12    10    11  ar
    13    10    20  ar
    14    11    12  ar
    15    12    13   1
    16    12    18  ar
    17    13    14  am
    18    14    15   2
    19    14    16   1
    20    16    17   2
    21    18    19  ar
    22    19    20  ar
    23    20    21  ar
    24    21    22   1
    25    22    23   1
    26    23    24   2
    27    23    27   1
    28    24    25   1
    29    25    26   2
    30    26    27   1
    31     1    28   1
    32     2    29   1
    33     3    30   1
    34     4    31   1
    35     5    32   1
    36    11    33   1
    37    13    34   1
    38    16    35   1
    39    17    36   1
    40    17    37   1
    41    18    38   1
    42    19    39   1
    43    22    40   1
    44    24    41   1
    45    25    42   1
    46    27    43   1
@<TRIPOS>SUBSTRUCTURE
     1  G97      1

