@<TRIPOS>MOLECULE
3huc_ligand_059
    43    46
SMALL
GAST_HUCK
****
This file was generated by PARSER (from files_GN.cpp)

@<TRIPOS>ATOM
      1 CAH        22.7933    0.6656  -20.2810 C.ar        1 G97      -0.0465
      2 CAE        23.1987    1.9069  -20.8055 C.ar        1 G97      -0.0569
      3 CAD        23.4537    2.9865  -19.9405 C.ar        1 G97      -0.0580
      4 CAF        23.2998    2.8259  -18.5530 C.ar        1 G97      -0.0569
      5 CAI        22.8879    1.5864  -18.0291 C.ar        1 G97      -0.0465
      6 CAW        22.6288    0.4858  -18.8843 C.ar        1 G97       0.0141
      7 C2         22.2397   -0.7706  -18.3518 C.ar        1 G97       0.0921
      8 N1         22.5841   -1.9309  -18.9700 N.ar        1 G97      -0.2553
      9 N3         21.5533   -0.8604  -17.1853 N.ar        1 G97      -0.3009
     10 C4         21.1954   -2.0497  -16.6407 C.ar        1 G97       0.0255
     11 CAM        20.4689   -2.0578  -15.4365 C.ar        1 G97      -0.0253
     12 CAU        20.1029   -3.2792  -14.8193 C.ar        1 G97       0.0730
     13 NAQ        19.3196   -3.3796  -13.7001 N.am        1 G97      -0.2295
     14 CAT        19.1468   -2.5062  -12.7140 C.2         1 G97       0.2258
     15 OAB        19.8241   -1.4969  -12.5815 O.2         1 G97      -0.3745
     16 CAC        18.2545   -2.7787  -11.7470 C.2         1 G97       0.0150
     17 CAA        16.9523   -2.4940  -11.8730 C.2         1 G97      -0.0781
     18 CAK        20.4954   -4.4851  -15.4412 C.ar        1 G97      -0.0283
     19 CAL        21.2013   -4.4808  -16.6580 C.ar        1 G97      -0.0465
     20 C5         21.5536   -3.2653  -17.2874 C.ar        1 G97       0.0455
     21 C6         22.2834   -3.1731  -18.5017 C.ar        1 G97       0.1561
     22 NAR        22.7110   -4.2872  -19.1542 N.pl3       1 G97      -0.2206
     23 CAV        23.5172   -4.3949  -20.2473 C.2         1 G97       0.1818
     24 CAJ        24.1454   -3.4510  -21.0539 C.2         1 G97      -0.0280
     25 CAG        24.8848   -4.1699  -21.9804 C.2         1 G97      -0.0243
     26 NAS        24.7006   -5.4765  -21.7418 N.2         1 G97      -0.2412
     27 NAN        23.8983   -5.5917  -20.7284 N.pl3       1 G97      -0.2006
     28 H1         22.6012   -0.1007  -20.9326 H           1 G97       0.0660
     29 H2         23.3050    2.0254  -21.8158 H           1 G97       0.0628
     30 H3         23.7577    3.8848  -20.3205 H           1 G97       0.0649
     31 H4         23.4933    3.6076  -17.9222 H           1 G97       0.0628
     32 H5         22.7994    1.4901  -17.0132 H           1 G97       0.0660
     33 H6         20.1876   -1.1632  -15.0292 H           1 G97       0.0447
     34 H7         18.8269   -4.2134  -13.6131 H           1 G97       0.2290
     35 H8         18.5814   -3.1986  -10.9070 H           1 G97       0.0698
     36 H9         16.3247   -2.7132  -11.1374 H           1 G97       0.0686
     37 H10        16.5877   -2.0606  -12.6901 H           1 G97       0.0686
     38 H11        20.2609   -5.3837  -15.0091 H           1 G97       0.0570
     39 H12        21.4572   -5.3778  -17.0739 H           1 G97       0.0666
     40 H13        22.4466   -5.1343  -18.7662 H           1 G97       0.2279
     41 H14        24.0988   -2.4343  -20.9879 H           1 G97       0.0216
     42 H15        25.4713   -3.7813  -22.7214 H           1 G97       0.0607
     43 H16        23.6161   -6.4414  -20.3579 H           1 G97       0.2521
@<TRIPOS>BOND
     1     1     2  ar
     2     1     6  ar
     3     2     3  ar
     4     3     4  ar
     5     4     5  ar
     6     5     6  ar
     7     6     7   1
     8     7     8  ar
     9     7     9  ar
    10     8    21  ar
    11     9    10  ar
    12    10    11  ar
    13    10    20  ar
    14    11    12  ar
    15    12    13   1
    16    12    18  ar
    17    13    14  am
    18    14    15   2
    19    14    16   1
    20    16    17   2
    21    18    19  ar
    22    19    20  ar
    23    20    21  ar
    24    21    22   1
    25    22    23   1
    26    23    24   2
    27    23    27   1
    28    24    25   1
    29    25    26   2
    30    26    27   1
    31     1    28   1
    32     2    29   1
    33     3    30   1
    34     4    31   1
    35     5    32   1
    36    11    33   1
    37    13    34   1
    38    16    35   1
    39    17    36   1
    40    17    37   1
    41    18    38   1
    42    19    39   1
    43    22    40   1
    44    24    41   1
    45    25    42   1
    46    27    43   1
@<TRIPOS>SUBSTRUCTURE
     1  G97      1

