@<TRIPOS>MOLECULE
3huc_ligand_084
    43    46
SMALL
GAST_HUCK
****
This file was generated by PARSER (from files_GN.cpp)

@<TRIPOS>ATOM
      1 CAH        22.1068   -1.9511  -18.3317 C.ar        1 G97      -0.0465
      2 CAE        22.6411   -2.1333  -19.6213 C.ar        1 G97      -0.0569
      3 CAD        22.5811   -3.3953  -20.2354 C.ar        1 G97      -0.0580
      4 CAF        21.9939   -4.4755  -19.5566 C.ar        1 G97      -0.0569
      5 CAI        21.4655   -4.2938  -18.2650 C.ar        1 G97      -0.0465
      6 CAW        21.5108   -3.0284  -17.6232 C.ar        1 G97       0.0141
      7 C2         20.9933   -2.8490  -16.3057 C.ar        1 G97       0.0921
      8 N1         20.2282   -3.7990  -15.7099 N.ar        1 G97      -0.2553
      9 N3         21.2383   -1.7236  -15.5873 N.ar        1 G97      -0.3009
     10 C4         20.7992   -1.5483  -14.3161 C.ar        1 G97       0.0255
     11 CAM        21.1538   -0.3707  -13.6294 C.ar        1 G97      -0.0253
     12 CAU        20.8275   -0.1993  -12.2682 C.ar        1 G97       0.0730
     13 NAQ        21.2052    0.9796  -11.6795 N.am        1 G97      -0.2295
     14 CAT        21.5096    1.2404  -10.4104 C.2         1 G97       0.2258
     15 OAB        21.5563    0.3455   -9.5727 O.2         1 G97      -0.3745
     16 CAC        21.8733    2.5078  -10.0680 C.2         1 G97       0.0150
     17 CAA        21.9175    2.9887   -8.8154 C.2         1 G97      -0.0781
     18 CAK        20.1205   -1.2341  -11.6157 C.ar        1 G97      -0.0283
     19 CAL        19.7499   -2.4031  -12.3044 C.ar        1 G97      -0.0465
     20 C5         20.0411   -2.5682  -13.6778 C.ar        1 G97       0.0455
     21 C6         19.7045   -3.7090  -14.4609 C.ar        1 G97       0.1561
     22 NAR        18.9082   -4.7700  -14.1763 N.pl3       1 G97      -0.2206
     23 CAV        17.9129   -4.8909  -13.2654 C.2         1 G97       0.1818
     24 CAJ        17.4444   -6.0973  -12.7695 C.2         1 G97      -0.0280
     25 CAG        16.3712   -5.7784  -11.9522 C.2         1 G97      -0.0243
     26 NAS        16.1907   -4.4483  -11.9985 N.2         1 G97      -0.2412
     27 NAN        17.0933   -3.9404  -12.7809 N.pl3       1 G97      -0.2006
     28 H1         22.1560   -1.0160  -17.9190 H           1 G97       0.0660
     29 H2         23.0675   -1.3459  -20.1153 H           1 G97       0.0628
     30 H3         22.9634   -3.5277  -21.1744 H           1 G97       0.0649
     31 H4         21.9517   -5.3955  -20.0017 H           1 G97       0.0628
     32 H5         21.0557   -5.1055  -17.7968 H           1 G97       0.0660
     33 H6         21.6891    0.3529  -14.1181 H           1 G97       0.0447
     34 H7         21.3130    1.7243  -12.2930 H           1 G97       0.2290
     35 H8         22.1125    3.1430  -10.7973 H           1 G97       0.0698
     36 H9         22.1927    3.9293   -8.6539 H           1 G97       0.0686
     37 H10        21.6753    2.4284   -8.0310 H           1 G97       0.0686
     38 H11        19.8507   -1.1437  -10.6348 H           1 G97       0.0570
     39 H12        19.2992   -3.1433  -11.7707 H           1 G97       0.0666
     40 H13        18.9613   -5.5031  -14.8106 H           1 G97       0.2279
     41 H14        17.8125   -7.0311  -12.9627 H           1 G97       0.0216
     42 H15        15.8004   -6.4405  -11.4243 H           1 G97       0.0607
     43 H16        17.1563   -2.9985  -13.0027 H           1 G97       0.2521
@<TRIPOS>BOND
     1     1     2  ar
     2     1     6  ar
     3     2     3  ar
     4     3     4  ar
     5     4     5  ar
     6     5     6  ar
     7     6     7   1
     8     7     8  ar
     9     7     9  ar
    10     8    21  ar
    11     9    10  ar
    12    10    11  ar
    13    10    20  ar
    14    11    12  ar
    15    12    13   1
    16    12    18  ar
    17    13    14  am
    18    14    15   2
    19    14    16   1
    20    16    17   2
    21    18    19  ar
    22    19    20  ar
    23    20    21  ar
    24    21    22   1
    25    22    23   1
    26    23    24   2
    27    23    27   1
    28    24    25   1
    29    25    26   2
    30    26    27   1
    31     1    28   1
    32     2    29   1
    33     3    30   1
    34     4    31   1
    35     5    32   1
    36    11    33   1
    37    13    34   1
    38    16    35   1
    39    17    36   1
    40    17    37   1
    41    18    38   1
    42    19    39   1
    43    22    40   1
    44    24    41   1
    45    25    42   1
    46    27    43   1
@<TRIPOS>SUBSTRUCTURE
     1  G97      1

