@<TRIPOS>MOLECULE
3huc_ligand_067
    43    46
SMALL
GAST_HUCK
****
This file was generated by PARSER (from files_GN.cpp)

@<TRIPOS>ATOM
      1 CAH        21.0092   -5.4552  -15.6473 C.ar        1 G97      -0.0465
      2 CAE        21.0025   -6.0171  -16.9368 C.ar        1 G97      -0.0569
      3 CAD        21.1596   -5.1930  -18.0641 C.ar        1 G97      -0.0580
      4 CAF        21.3125   -3.8065  -17.8970 C.ar        1 G97      -0.0569
      5 CAI        21.2961   -3.2374  -16.6105 C.ar        1 G97      -0.0465
      6 CAW        21.1795   -4.0643  -15.4731 C.ar        1 G97       0.0141
      7 C2         21.4041   -3.5380  -14.1906 C.ar        1 G97       0.0921
      8 N1         20.6238   -2.5750  -13.6394 N.ar        1 G97      -0.2553
      9 N3         22.4860   -3.9518  -13.4982 N.ar        1 G97      -0.3009
     10 C4         22.8155   -3.4411  -12.2878 C.ar        1 G97       0.0255
     11 CAM        23.9903   -3.8948  -11.6541 C.ar        1 G97      -0.0253
     12 CAU        24.3804   -3.3878  -10.4005 C.ar        1 G97       0.0730
     13 NAQ        25.5663   -3.8393   -9.8899 N.am        1 G97      -0.2295
     14 CAT        25.9447   -3.9418   -8.6269 C.2         1 G97       0.2258
     15 OAB        25.1843   -3.7553   -7.6898 O.2         1 G97      -0.3745
     16 CAC        27.1823   -4.4008   -8.3464 C.2         1 G97       0.0150
     17 CAA        28.0754   -3.7083   -7.6296 C.2         1 G97      -0.0781
     18 CAK        23.5616   -2.4086   -9.7908 C.ar        1 G97      -0.0283
     19 CAL        22.3919   -1.9436  -10.4248 C.ar        1 G97      -0.0465
     20 C5         22.0031   -2.4440  -11.6878 C.ar        1 G97       0.0455
     21 C6         20.8582   -2.0184  -12.4180 C.ar        1 G97       0.1561
     22 NAR        20.0186   -1.0914  -11.8980 N.pl3       1 G97      -0.2206
     23 CAV        18.8595   -0.5927  -12.3967 C.2         1 G97       0.1818
     24 CAJ        18.2255   -0.7368  -13.6237 C.2         1 G97      -0.0280
     25 CAG        17.0495   -0.0098  -13.5289 C.2         1 G97      -0.0243
     26 NAS        16.9953    0.5418  -12.3081 N.2         1 G97      -0.2412
     27 NAN        18.0638    0.1957  -11.6580 N.pl3       1 G97      -0.2006
     28 H1         20.9127   -6.0716  -14.8322 H           1 G97       0.0660
     29 H2         20.8930   -7.0277  -17.0532 H           1 G97       0.0628
     30 H3         21.1695   -5.6011  -18.9977 H           1 G97       0.0649
     31 H4         21.4649   -3.2104  -18.7138 H           1 G97       0.0628
     32 H5         21.4470   -2.2272  -16.5082 H           1 G97       0.0660
     33 H6         24.5695   -4.6077  -12.1155 H           1 G97       0.0447
     34 H7         26.2129   -4.1591  -10.5475 H           1 G97       0.2290
     35 H8         27.4689   -5.2687   -8.7445 H           1 G97       0.0698
     36 H9         28.9800   -4.0799   -7.4779 H           1 G97       0.0686
     37 H10        27.8715   -2.7995   -7.2734 H           1 G97       0.0686
     38 H11        23.8223   -1.9990   -8.8945 H           1 G97       0.0570
     39 H12        21.8436   -1.2217   -9.9538 H           1 G97       0.0666
     40 H13        20.2522   -0.7613  -11.0175 H           1 G97       0.2279
     41 H14        18.5444   -1.2639  -14.4342 H           1 G97       0.0216
     42 H15        16.3361    0.0934  -14.2527 H           1 G97       0.0607
     43 H16        18.2588    0.4616  -10.7450 H           1 G97       0.2521
@<TRIPOS>BOND
     1     1     2  ar
     2     1     6  ar
     3     2     3  ar
     4     3     4  ar
     5     4     5  ar
     6     5     6  ar
     7     6     7   1
     8     7     8  ar
     9     7     9  ar
    10     8    21  ar
    11     9    10  ar
    12    10    11  ar
    13    10    20  ar
    14    11    12  ar
    15    12    13   1
    16    12    18  ar
    17    13    14  am
    18    14    15   2
    19    14    16   1
    20    16    17   2
    21    18    19  ar
    22    19    20  ar
    23    20    21  ar
    24    21    22   1
    25    22    23   1
    26    23    24   2
    27    23    27   1
    28    24    25   1
    29    25    26   2
    30    26    27   1
    31     1    28   1
    32     2    29   1
    33     3    30   1
    34     4    31   1
    35     5    32   1
    36    11    33   1
    37    13    34   1
    38    16    35   1
    39    17    36   1
    40    17    37   1
    41    18    38   1
    42    19    39   1
    43    22    40   1
    44    24    41   1
    45    25    42   1
    46    27    43   1
@<TRIPOS>SUBSTRUCTURE
     1  G97      1

