@<TRIPOS>MOLECULE
3huc_ligand_004
    43    46
SMALL
GAST_HUCK
****
This file was generated by PARSER (from files_GN.cpp)

@<TRIPOS>ATOM
      1 CAH        21.4640    1.4104  -11.2261 C.ar        1 G97      -0.0465
      2 CAE        21.6876    2.6620  -10.6184 C.ar        1 G97      -0.0569
      3 CAD        22.1557    2.7287   -9.2953 C.ar        1 G97      -0.0580
      4 CAF        22.4131    1.5406   -8.5812 C.ar        1 G97      -0.0569
      5 CAI        22.1830    0.2913   -9.1863 C.ar        1 G97      -0.0465
      6 CAW        21.6962    0.2008  -10.5149 C.ar        1 G97       0.0141
      7 C2         21.4116   -1.0642  -11.1078 C.ar        1 G97       0.0921
      8 N1         21.1445   -2.1586  -10.3441 N.ar        1 G97      -0.2553
      9 N3         21.4010   -1.2311  -12.4581 N.ar        1 G97      -0.3009
     10 C4         21.0559   -2.4037  -13.0478 C.ar        1 G97       0.0255
     11 CAM        21.1109   -2.5248  -14.4494 C.ar        1 G97      -0.0253
     12 CAU        20.7104   -3.7240  -15.0917 C.ar        1 G97       0.0730
     13 NAQ        20.8852   -4.0518  -16.4159 N.am        1 G97      -0.2295
     14 CAT        21.4872   -3.4197  -17.4180 C.2         1 G97       0.2258
     15 OAB        21.8802   -2.2684  -17.3042 O.2         1 G97      -0.3745
     16 CAC        21.7552   -4.0366  -18.6064 C.2         1 G97       0.0150
     17 CAA        21.2666   -5.2103  -19.0276 C.2         1 G97      -0.0781
     18 CAK        20.0991   -4.7161  -14.2926 C.ar        1 G97      -0.0283
     19 CAL        20.0470   -4.5988  -12.8943 C.ar        1 G97      -0.0465
     20 C5         20.6406   -3.5013  -12.2433 C.ar        1 G97       0.0455
     21 C6         20.8126   -3.3811  -10.8380 C.ar        1 G97       0.1561
     22 NAR        20.7441   -4.3502   -9.8886 N.pl3       1 G97      -0.2206
     23 CAV        20.8435   -5.7012  -10.0145 C.2         1 G97       0.1818
     24 CAJ        21.4186   -6.5008  -11.0021 C.2         1 G97      -0.0280
     25 CAG        21.1782   -7.8058  -10.6118 C.2         1 G97      -0.0243
     26 NAS        20.5746   -7.7811   -9.4177 N.2         1 G97      -0.2412
     27 NAN        20.4056   -6.5461   -9.0682 N.pl3       1 G97      -0.2006
     28 H1         21.1090    1.3958  -12.1882 H           1 G97       0.0660
     29 H2         21.5066    3.5217  -11.1409 H           1 G97       0.0628
     30 H3         22.3136    3.6386   -8.8525 H           1 G97       0.0649
     31 H4         22.7485    1.5885   -7.6185 H           1 G97       0.0628
     32 H5         22.3841   -0.5541   -8.6465 H           1 G97       0.0660
     33 H6         21.4684   -1.7350  -14.9879 H           1 G97       0.0447
     34 H7         20.5520   -4.9329  -16.6379 H           1 G97       0.2290
     35 H8         22.4123   -3.5980  -19.2174 H           1 G97       0.0698
     36 H9         21.5574   -5.5887  -19.8994 H           1 G97       0.0686
     37 H10        20.5939   -5.7163  -18.5016 H           1 G97       0.0686
     38 H11        19.7156   -5.5618  -14.7190 H           1 G97       0.0570
     39 H12        19.5624   -5.3268  -12.3614 H           1 G97       0.0666
     40 H13        20.7266   -4.0320   -8.9726 H           1 G97       0.2279
     41 H14        21.8682   -6.1993  -11.8733 H           1 G97       0.0216
     42 H15        21.4096   -8.6459  -11.1395 H           1 G97       0.0607
     43 H16        19.9730   -6.2669   -8.2430 H           1 G97       0.2521
@<TRIPOS>BOND
     1     1     2  ar
     2     1     6  ar
     3     2     3  ar
     4     3     4  ar
     5     4     5  ar
     6     5     6  ar
     7     6     7   1
     8     7     8  ar
     9     7     9  ar
    10     8    21  ar
    11     9    10  ar
    12    10    11  ar
    13    10    20  ar
    14    11    12  ar
    15    12    13   1
    16    12    18  ar
    17    13    14  am
    18    14    15   2
    19    14    16   1
    20    16    17   2
    21    18    19  ar
    22    19    20  ar
    23    20    21  ar
    24    21    22   1
    25    22    23   1
    26    23    24   2
    27    23    27   1
    28    24    25   1
    29    25    26   2
    30    26    27   1
    31     1    28   1
    32     2    29   1
    33     3    30   1
    34     4    31   1
    35     5    32   1
    36    11    33   1
    37    13    34   1
    38    16    35   1
    39    17    36   1
    40    17    37   1
    41    18    38   1
    42    19    39   1
    43    22    40   1
    44    24    41   1
    45    25    42   1
    46    27    43   1
@<TRIPOS>SUBSTRUCTURE
     1  G97      1

