@<TRIPOS>MOLECULE
3huc_ligand_085
    43    46
SMALL
GAST_HUCK
****
This file was generated by PARSER (from files_GN.cpp)

@<TRIPOS>ATOM
      1 CAH        20.4038   -2.0268  -14.3576 C.ar        1 G97      -0.0465
      2 CAE        20.7566   -2.0436  -15.7187 C.ar        1 G97      -0.0569
      3 CAD        21.0407   -3.2664  -16.3538 C.ar        1 G97      -0.0580
      4 CAF        20.9724   -4.4689  -15.6250 C.ar        1 G97      -0.0569
      5 CAI        20.6240   -4.4526  -14.2589 C.ar        1 G97      -0.0465
      6 CAW        20.3442   -3.2293  -13.6158 C.ar        1 G97       0.0141
      7 C2         19.9853   -3.1619  -12.2573 C.ar        1 G97       0.0921
      8 N1         20.8604   -2.6729  -11.3511 N.ar        1 G97      -0.2553
      9 N3         18.6937   -3.3153  -11.8892 N.ar        1 G97      -0.3009
     10 C4         18.2589   -2.9528  -10.6541 C.ar        1 G97       0.0255
     11 CAM        16.8784   -3.0378  -10.3893 C.ar        1 G97      -0.0253
     12 CAU        16.3323   -2.4480   -9.2237 C.ar        1 G97       0.0730
     13 NAQ        14.9881   -2.3466   -8.9878 N.am        1 G97      -0.2295
     14 CAT        14.0118   -3.2081   -9.2379 C.2         1 G97       0.2258
     15 OAB        12.8701   -2.8274   -9.0091 O.2         1 G97      -0.3745
     16 CAC        14.1627   -4.5100   -9.5734 C.2         1 G97       0.0150
     17 CAA        14.7973   -5.3780   -8.7772 C.2         1 G97      -0.0781
     18 CAK        17.2038   -1.7771   -8.3461 C.ar        1 G97      -0.0283
     19 CAL        18.5928   -1.7402   -8.5857 C.ar        1 G97      -0.0465
     20 C5         19.1569   -2.3532   -9.7241 C.ar        1 G97       0.0455
     21 C6         20.5399   -2.3070  -10.0823 C.ar        1 G97       0.1561
     22 NAR        21.6451   -1.8763   -9.4219 N.pl3       1 G97      -0.2206
     23 CAV        21.8971   -1.5012   -8.1423 C.2         1 G97       0.1818
     24 CAJ        21.4118   -1.9365   -6.9163 C.2         1 G97      -0.0280
     25 CAG        22.1091   -1.2208   -5.9542 C.2         1 G97      -0.0243
     26 NAS        22.9997   -0.4360   -6.5818 N.2         1 G97      -0.2412
     27 NAN        22.8702   -0.6188   -7.8581 N.pl3       1 G97      -0.2006
     28 H1         20.1777   -1.1302  -13.9183 H           1 G97       0.0660
     29 H2         20.7910   -1.1684  -16.2468 H           1 G97       0.0628
     30 H3         21.2968   -3.2777  -17.3400 H           1 G97       0.0649
     31 H4         21.1696   -5.3580  -16.0885 H           1 G97       0.0628
     32 H5         20.5829   -5.3355  -13.7434 H           1 G97       0.0660
     33 H6         16.2473   -3.4463  -11.0914 H           1 G97       0.0447
     34 H7         14.7060   -1.5215   -8.5522 H           1 G97       0.2290
     35 H8         13.7191   -4.8466  -10.3992 H           1 G97       0.0698
     36 H9         14.8374   -6.3378   -9.0215 H           1 G97       0.0686
     37 H10        15.2160   -5.0888   -7.9250 H           1 G97       0.0686
     38 H11        16.8341   -1.2802   -7.5332 H           1 G97       0.0570
     39 H12        19.1618   -1.1785   -7.9544 H           1 G97       0.0666
     40 H13        22.4351   -1.8237   -9.9881 H           1 G97       0.2279
     41 H14        20.7080   -2.6562   -6.7414 H           1 G97       0.0216
     42 H15        21.9955   -1.2951   -4.9424 H           1 G97       0.0607
     43 H16        23.4063   -0.1627   -8.5270 H           1 G97       0.2521
@<TRIPOS>BOND
     1     1     2  ar
     2     1     6  ar
     3     2     3  ar
     4     3     4  ar
     5     4     5  ar
     6     5     6  ar
     7     6     7   1
     8     7     8  ar
     9     7     9  ar
    10     8    21  ar
    11     9    10  ar
    12    10    11  ar
    13    10    20  ar
    14    11    12  ar
    15    12    13   1
    16    12    18  ar
    17    13    14  am
    18    14    15   2
    19    14    16   1
    20    16    17   2
    21    18    19  ar
    22    19    20  ar
    23    20    21  ar
    24    21    22   1
    25    22    23   1
    26    23    24   2
    27    23    27   1
    28    24    25   1
    29    25    26   2
    30    26    27   1
    31     1    28   1
    32     2    29   1
    33     3    30   1
    34     4    31   1
    35     5    32   1
    36    11    33   1
    37    13    34   1
    38    16    35   1
    39    17    36   1
    40    17    37   1
    41    18    38   1
    42    19    39   1
    43    22    40   1
    44    24    41   1
    45    25    42   1
    46    27    43   1
@<TRIPOS>SUBSTRUCTURE
     1  G97      1

