@<TRIPOS>MOLECULE
3huc_ligand_006
    43    46
SMALL
GAST_HUCK
****
This file was generated by PARSER (from files_GN.cpp)

@<TRIPOS>ATOM
      1 CAH        19.1922   -3.3322   -9.2085 C.ar        1 G97      -0.0465
      2 CAE        18.8656   -4.0385   -8.0322 C.ar        1 G97      -0.0569
      3 CAD        19.4415   -5.2963   -7.7877 C.ar        1 G97      -0.0580
      4 CAF        20.3478   -5.8468   -8.7081 C.ar        1 G97      -0.0569
      5 CAI        20.6674   -5.1453   -9.8862 C.ar        1 G97      -0.0465
      6 CAW        20.0913   -3.8805  -10.1548 C.ar        1 G97       0.0141
      7 C2         20.4125   -3.1748  -11.3428 C.ar        1 G97       0.0921
      8 N1         20.5192   -1.8235  -11.3518 N.ar        1 G97      -0.2553
      9 N3         20.5720   -3.8327  -12.5195 N.ar        1 G97      -0.3009
     10 C4         20.8279   -3.1881  -13.6863 C.ar        1 G97       0.0255
     11 CAM        20.9347   -3.9270  -14.8757 C.ar        1 G97      -0.0253
     12 CAU        21.1759   -3.2841  -16.1119 C.ar        1 G97       0.0730
     13 NAQ        21.2022   -4.0901  -17.2252 N.am        1 G97      -0.2295
     14 CAT        21.8103   -3.9368  -18.3950 C.2         1 G97       0.2258
     15 OAB        22.5434   -2.9874  -18.6227 O.2         1 G97      -0.3745
     16 CAC        21.5891   -4.8528  -19.3801 C.2         1 G97       0.0150
     17 CAA        22.5071   -5.2763  -20.2558 C.2         1 G97      -0.0781
     18 CAK        21.3024   -1.8744  -16.1200 C.ar        1 G97      -0.0283
     19 CAL        21.2014   -1.1315  -14.9296 C.ar        1 G97      -0.0465
     20 C5         20.9465   -1.7722  -13.6917 C.ar        1 G97       0.0455
     21 C6         20.7920   -1.0888  -12.4609 C.ar        1 G97       0.1561
     22 NAR        20.9301    0.2639  -12.3947 N.pl3       1 G97      -0.2206
     23 CAV        20.8421    1.0484  -11.2960 C.2         1 G97       0.1818
     24 CAJ        20.9806    2.4259  -11.3161 C.2         1 G97      -0.0280
     25 CAG        20.8477    2.8392  -10.0026 C.2         1 G97      -0.0243
     26 NAS        20.6386    1.7538   -9.2381 N.2         1 G97      -0.2412
     27 NAN        20.6342    0.7104  -10.0099 N.pl3       1 G97      -0.2006
     28 H1         18.7445   -2.4283   -9.3660 H           1 G97       0.0660
     29 H2         18.2004   -3.6403   -7.3696 H           1 G97       0.0628
     30 H3         19.2130   -5.8066   -6.9351 H           1 G97       0.0649
     31 H4         20.7860   -6.7494   -8.5185 H           1 G97       0.0628
     32 H5         21.3230   -5.5740  -10.5408 H           1 G97       0.0660
     33 H6         20.8249   -4.9483  -14.8439 H           1 G97       0.0447
     34 H7         20.6980   -4.9136  -17.1414 H           1 G97       0.2290
     35 H8         20.6947   -5.2706  -19.4148 H           1 G97       0.0698
     36 H9         22.2717   -5.9874  -20.9143 H           1 G97       0.0686
     37 H10        23.4306   -4.9255  -20.2541 H           1 G97       0.0686
     38 H11        21.4486   -1.3680  -17.0021 H           1 G97       0.0570
     39 H12        21.2830   -0.1145  -14.9829 H           1 G97       0.0666
     40 H13        21.1318    0.7206  -13.2227 H           1 G97       0.2279
     41 H14        21.1542    3.0223  -12.1316 H           1 G97       0.0216
     42 H15        20.9013    3.8051   -9.6646 H           1 G97       0.0607
     43 H16        20.5169   -0.1980   -9.6942 H           1 G97       0.2521
@<TRIPOS>BOND
     1     1     2  ar
     2     1     6  ar
     3     2     3  ar
     4     3     4  ar
     5     4     5  ar
     6     5     6  ar
     7     6     7   1
     8     7     8  ar
     9     7     9  ar
    10     8    21  ar
    11     9    10  ar
    12    10    11  ar
    13    10    20  ar
    14    11    12  ar
    15    12    13   1
    16    12    18  ar
    17    13    14  am
    18    14    15   2
    19    14    16   1
    20    16    17   2
    21    18    19  ar
    22    19    20  ar
    23    20    21  ar
    24    21    22   1
    25    22    23   1
    26    23    24   2
    27    23    27   1
    28    24    25   1
    29    25    26   2
    30    26    27   1
    31     1    28   1
    32     2    29   1
    33     3    30   1
    34     4    31   1
    35     5    32   1
    36    11    33   1
    37    13    34   1
    38    16    35   1
    39    17    36   1
    40    17    37   1
    41    18    38   1
    42    19    39   1
    43    22    40   1
    44    24    41   1
    45    25    42   1
    46    27    43   1
@<TRIPOS>SUBSTRUCTURE
     1  G97      1

