@<TRIPOS>MOLECULE
3huc_ligand_001
    43    46
SMALL
GAST_HUCK
****
This file was generated by PARSER (from files_GN.cpp)

@<TRIPOS>ATOM
      1 CAH        21.4650    0.3767  -13.8839 C.ar        1 G97      -0.0465
      2 CAE        21.3951    1.5267  -14.6944 C.ar        1 G97      -0.0569
      3 CAD        21.4095    1.4071  -16.0954 C.ar        1 G97      -0.0580
      4 CAF        21.4747    0.1350  -16.6907 C.ar        1 G97      -0.0569
      5 CAI        21.5177   -1.0175  -15.8836 C.ar        1 G97      -0.0465
      6 CAW        21.5240   -0.9035  -14.4749 C.ar        1 G97       0.0141
      7 C2         21.6538   -2.0626  -13.6906 C.ar        1 G97       0.0921
      8 N1         21.0708   -3.2226  -14.0811 N.ar        1 G97      -0.2553
      9 N3         22.4688   -2.0829  -12.6098 N.ar        1 G97      -0.3009
     10 C4         22.7550   -3.2317  -11.9535 C.ar        1 G97       0.0255
     11 CAM        23.7051   -3.1929  -10.9159 C.ar        1 G97      -0.0253
     12 CAU        24.2039   -4.3789  -10.3359 C.ar        1 G97       0.0730
     13 NAQ        25.2234   -4.4795   -9.4304 N.am        1 G97      -0.2295
     14 CAT        25.8458   -3.5606   -8.6954 C.2         1 G97       0.2258
     15 OAB        25.4860   -2.3880   -8.6623 O.2         1 G97      -0.3745
     16 CAC        26.9597   -3.8894   -7.9887 C.2         1 G97       0.0150
     17 CAA        27.1320   -5.0347   -7.3152 C.2         1 G97      -0.0781
     18 CAK        23.6938   -5.6160  -10.8172 C.ar        1 G97      -0.0283
     19 CAL        22.7135   -5.6484  -11.8231 C.ar        1 G97      -0.0465
     20 C5         22.1991   -4.4769  -12.3872 C.ar        1 G97       0.0455
     21 C6         21.2584   -4.4113  -13.4553 C.ar        1 G97       0.1561
     22 NAR        20.4977   -5.3779  -14.0305 N.pl3       1 G97      -0.2206
     23 CAV        20.1531   -6.6299  -13.6821 C.2         1 G97       0.1818
     24 CAJ        19.9575   -7.2777  -12.4530 C.2         1 G97      -0.0280
     25 CAG        19.4857   -8.5379  -12.7686 C.2         1 G97      -0.0243
     26 NAS        19.3899   -8.6384  -14.1013 N.2         1 G97      -0.2412
     27 NAN        19.7693   -7.5100  -14.6161 N.pl3       1 G97      -0.2006
     28 H1         21.4587    0.4826  -12.8646 H           1 G97       0.0660
     29 H2         21.3355    2.4539  -14.2632 H           1 G97       0.0628
     30 H3         21.3760    2.2435  -16.6833 H           1 G97       0.0649
     31 H4         21.4952    0.0449  -17.7099 H           1 G97       0.0628
     32 H5         21.5775   -1.9362  -16.3355 H           1 G97       0.0660
     33 H6         24.0850   -2.2871  -10.6423 H           1 G97       0.0447
     34 H7         25.5744   -5.3763   -9.3244 H           1 G97       0.2290
     35 H8         27.7112   -3.2333   -7.9764 H           1 G97       0.0698
     36 H9         27.9930   -5.2184   -6.8614 H           1 G97       0.0686
     37 H10        26.4125   -5.7169   -7.2577 H           1 G97       0.0686
     38 H11        24.0659   -6.4953  -10.4657 H           1 G97       0.0570
     39 H12        22.4459   -6.5681  -12.1861 H           1 G97       0.0666
     40 H13        20.0738   -5.0954  -14.8579 H           1 G97       0.2279
     41 H14        20.0765   -6.9022  -11.5095 H           1 G97       0.0216
     42 H15        19.2396   -9.2694  -12.0942 H           1 G97       0.0607
     43 H16        19.7559   -7.2962  -15.5624 H           1 G97       0.2521
@<TRIPOS>BOND
     1     1     2  ar
     2     1     6  ar
     3     2     3  ar
     4     3     4  ar
     5     4     5  ar
     6     5     6  ar
     7     6     7   1
     8     7     8  ar
     9     7     9  ar
    10     8    21  ar
    11     9    10  ar
    12    10    11  ar
    13    10    20  ar
    14    11    12  ar
    15    12    13   1
    16    12    18  ar
    17    13    14  am
    18    14    15   2
    19    14    16   1
    20    16    17   2
    21    18    19  ar
    22    19    20  ar
    23    20    21  ar
    24    21    22   1
    25    22    23   1
    26    23    24   2
    27    23    27   1
    28    24    25   1
    29    25    26   2
    30    26    27   1
    31     1    28   1
    32     2    29   1
    33     3    30   1
    34     4    31   1
    35     5    32   1
    36    11    33   1
    37    13    34   1
    38    16    35   1
    39    17    36   1
    40    17    37   1
    41    18    38   1
    42    19    39   1
    43    22    40   1
    44    24    41   1
    45    25    42   1
    46    27    43   1
@<TRIPOS>SUBSTRUCTURE
     1  G97      1

