@<TRIPOS>MOLECULE
3huc_ligand_046
    43    46
SMALL
GAST_HUCK
****
This file was generated by PARSER (from files_GN.cpp)

@<TRIPOS>ATOM
      1 CAH        24.5526   -2.7681  -19.9739 C.ar        1 G97      -0.0465
      2 CAE        25.4386   -3.1674  -20.9916 C.ar        1 G97      -0.0569
      3 CAD        25.1280   -4.2745  -21.7985 C.ar        1 G97      -0.0580
      4 CAF        23.9260   -4.9726  -21.5966 C.ar        1 G97      -0.0569
      5 CAI        23.0425   -4.5735  -20.5759 C.ar        1 G97      -0.0465
      6 CAW        23.3408   -3.4679  -19.7372 C.ar        1 G97       0.0141
      7 C2         22.4908   -3.1132  -18.6482 C.ar        1 G97       0.0921
      8 N1         22.2536   -1.8181  -18.3143 N.ar        1 G97      -0.2553
      9 N3         21.9859   -4.0525  -17.8132 N.ar        1 G97      -0.3009
     10 C4         21.2672   -3.7424  -16.7072 C.ar        1 G97       0.0255
     11 CAM        20.8332   -4.7976  -15.8812 C.ar        1 G97      -0.0253
     12 CAU        20.1110   -4.5466  -14.6953 C.ar        1 G97       0.0730
     13 NAQ        19.7243   -5.6448  -13.9660 N.am        1 G97      -0.2295
     14 CAT        19.2429   -5.7450  -12.7314 C.2         1 G97       0.2258
     15 OAB        19.1548   -4.7876  -11.9707 O.2         1 G97      -0.3745
     16 CAC        18.9229   -6.9731  -12.2607 C.2         1 G97       0.0150
     17 CAA        17.7373   -7.2728  -11.7088 C.2         1 G97      -0.0781
     18 CAK        19.7845   -3.2029  -14.4009 C.ar        1 G97      -0.0283
     19 CAL        20.2236   -2.1522  -15.2272 C.ar        1 G97      -0.0465
     20 C5         21.0059   -2.3813  -16.3755 C.ar        1 G97       0.0455
     21 C6         21.5515   -1.3801  -17.2333 C.ar        1 G97       0.1561
     22 NAR        21.6148   -0.0206  -17.2013 N.pl3       1 G97      -0.2206
     23 CAV        21.2846    1.0185  -16.3794 C.2         1 G97       0.1818
     24 CAJ        21.7664    2.2837  -16.7004 C.2         1 G97      -0.0280
     25 CAG        21.3000    3.1539  -15.7322 C.2         1 G97      -0.0243
     26 NAS        20.5669    2.4428  -14.8679 N.2         1 G97      -0.2412
     27 NAN        20.5660    1.2040  -15.2515 N.pl3       1 G97      -0.2006
     28 H1         24.8212   -1.9734  -19.3883 H           1 G97       0.0660
     29 H2         26.3162   -2.6616  -21.1360 H           1 G97       0.0628
     30 H3         25.7779   -4.5752  -22.5271 H           1 G97       0.0649
     31 H4         23.7005   -5.7777  -22.1862 H           1 G97       0.0628
     32 H5         22.1800   -5.1086  -20.4477 H           1 G97       0.0660
     33 H6         21.0607   -5.7619  -16.1442 H           1 G97       0.0447
     34 H7         19.8323   -6.4937  -14.4262 H           1 G97       0.2290
     35 H8         19.5899   -7.7075  -12.3592 H           1 G97       0.0698
     36 H9         17.5564   -8.1954  -11.3884 H           1 G97       0.0686
     37 H10        17.0173   -6.5915  -11.6210 H           1 G97       0.0686
     38 H11        19.2014   -2.9670  -13.5985 H           1 G97       0.0570
     39 H12        19.9410   -1.2233  -14.9811 H           1 G97       0.0666
     40 H13        22.0887    0.3149  -17.9798 H           1 G97       0.2279
     41 H14        22.3566    2.5361  -17.4965 H           1 G97       0.0216
     42 H15        21.4756    4.1587  -15.6856 H           1 G97       0.0607
     43 H16        20.0771    0.5324  -14.7656 H           1 G97       0.2521
@<TRIPOS>BOND
     1     1     2  ar
     2     1     6  ar
     3     2     3  ar
     4     3     4  ar
     5     4     5  ar
     6     5     6  ar
     7     6     7   1
     8     7     8  ar
     9     7     9  ar
    10     8    21  ar
    11     9    10  ar
    12    10    11  ar
    13    10    20  ar
    14    11    12  ar
    15    12    13   1
    16    12    18  ar
    17    13    14  am
    18    14    15   2
    19    14    16   1
    20    16    17   2
    21    18    19  ar
    22    19    20  ar
    23    20    21  ar
    24    21    22   1
    25    22    23   1
    26    23    24   2
    27    23    27   1
    28    24    25   1
    29    25    26   2
    30    26    27   1
    31     1    28   1
    32     2    29   1
    33     3    30   1
    34     4    31   1
    35     5    32   1
    36    11    33   1
    37    13    34   1
    38    16    35   1
    39    17    36   1
    40    17    37   1
    41    18    38   1
    42    19    39   1
    43    22    40   1
    44    24    41   1
    45    25    42   1
    46    27    43   1
@<TRIPOS>SUBSTRUCTURE
     1  G97      1

