@<TRIPOS>MOLECULE
3huc_ligand_045
    43    46
SMALL
GAST_HUCK
****
This file was generated by PARSER (from files_GN.cpp)

@<TRIPOS>ATOM
      1 CAH        19.2612    4.8370  -12.1050 C.ar        1 G97      -0.0465
      2 CAE        18.7332    6.0363  -12.5984 C.ar        1 G97      -0.0569
      3 CAD        19.0686    6.4693  -13.9003 C.ar        1 G97      -0.0580
      4 CAF        19.9081    5.6815  -14.7071 C.ar        1 G97      -0.0569
      5 CAI        20.4222    4.4694  -14.2197 C.ar        1 G97      -0.0465
      6 CAW        20.1034    4.0275  -12.9087 C.ar        1 G97       0.0141
      7 C2         20.5851    2.7957  -12.4169 C.ar        1 G97       0.0921
      8 N1         20.4638    1.6609  -13.1472 N.ar        1 G97      -0.2553
      9 N3         21.1855    2.7056  -11.2099 N.ar        1 G97      -0.3009
     10 C4         21.6345    1.5342  -10.7099 C.ar        1 G97       0.0255
     11 CAM        22.2511    1.5447   -9.4478 C.ar        1 G97      -0.0253
     12 CAU        22.7191    0.3506   -8.8678 C.ar        1 G97       0.0730
     13 NAQ        23.2861    0.4348   -7.6295 N.am        1 G97      -0.2295
     14 CAT        24.4174   -0.0885   -7.1725 C.2         1 G97       0.2258
     15 OAB        24.6830    0.2203   -6.0166 O.2         1 G97      -0.3745
     16 CAC        25.3301   -0.7893   -7.9105 C.2         1 G97       0.0150
     17 CAA        26.4012   -1.4250   -7.4123 C.2         1 G97      -0.0781
     18 CAK        22.4668   -0.8668   -9.5383 C.ar        1 G97      -0.0283
     19 CAL        21.8271   -0.8752  -10.7915 C.ar        1 G97      -0.0465
     20 C5         21.4636    0.3287  -11.4464 C.ar        1 G97       0.0455
     21 C6         20.8817    0.4384  -12.7432 C.ar        1 G97       0.1561
     22 NAR        20.6244   -0.4748  -13.7118 N.pl3       1 G97      -0.2206
     23 CAV        21.0628   -1.7403  -13.9115 C.2         1 G97       0.1818
     24 CAJ        20.3952   -2.6487  -14.7335 C.2         1 G97      -0.0280
     25 CAG        21.1946   -3.7821  -14.7774 C.2         1 G97      -0.0243
     26 NAS        22.2935   -3.5576  -14.0253 N.2         1 G97      -0.2412
     27 NAN        22.2200   -2.3379  -13.5618 N.pl3       1 G97      -0.2006
     28 H1         19.0013    4.5359  -11.1599 H           1 G97       0.0660
     29 H2         18.1141    6.6047  -12.0209 H           1 G97       0.0628
     30 H3         18.6910    7.3467  -14.2604 H           1 G97       0.0649
     31 H4         20.1483    5.9909  -15.6531 H           1 G97       0.0628
     32 H5         21.0297    3.9047  -14.8172 H           1 G97       0.0660
     33 H6         22.3831    2.4311   -8.9552 H           1 G97       0.0447
     34 H7         22.8473    1.0430   -7.0111 H           1 G97       0.2290
     35 H8         25.2131   -0.8157   -8.9013 H           1 G97       0.0698
     36 H9         27.0301   -1.8969   -8.0217 H           1 G97       0.0686
     37 H10        26.5967   -1.4328   -6.4385 H           1 G97       0.0686
     38 H11        22.7180   -1.7557   -9.0928 H           1 G97       0.0570
     39 H12        21.6074   -1.7783  -11.2034 H           1 G97       0.0666
     40 H13        20.0560   -0.1502  -14.4286 H           1 G97       0.2279
     41 H14        19.4982   -2.5140  -15.2115 H           1 G97       0.0216
     42 H15        20.9864   -4.6464  -15.2750 H           1 G97       0.0607
     43 H16        22.9252   -1.9162  -13.0313 H           1 G97       0.2521
@<TRIPOS>BOND
     1     1     2  ar
     2     1     6  ar
     3     2     3  ar
     4     3     4  ar
     5     4     5  ar
     6     5     6  ar
     7     6     7   1
     8     7     8  ar
     9     7     9  ar
    10     8    21  ar
    11     9    10  ar
    12    10    11  ar
    13    10    20  ar
    14    11    12  ar
    15    12    13   1
    16    12    18  ar
    17    13    14  am
    18    14    15   2
    19    14    16   1
    20    16    17   2
    21    18    19  ar
    22    19    20  ar
    23    20    21  ar
    24    21    22   1
    25    22    23   1
    26    23    24   2
    27    23    27   1
    28    24    25   1
    29    25    26   2
    30    26    27   1
    31     1    28   1
    32     2    29   1
    33     3    30   1
    34     4    31   1
    35     5    32   1
    36    11    33   1
    37    13    34   1
    38    16    35   1
    39    17    36   1
    40    17    37   1
    41    18    38   1
    42    19    39   1
    43    22    40   1
    44    24    41   1
    45    25    42   1
    46    27    43   1
@<TRIPOS>SUBSTRUCTURE
     1  G97      1

