@<TRIPOS>MOLECULE
3huc_ligand_023
    43    46
SMALL
GAST_HUCK
****
This file was generated by PARSER (from files_GN.cpp)

@<TRIPOS>ATOM
      1 CAH        21.6686    0.6308  -17.3906 C.ar        1 G97      -0.0465
      2 CAE        21.8561    2.0065  -17.6138 C.ar        1 G97      -0.0569
      3 CAD        21.6769    2.9182  -16.5614 C.ar        1 G97      -0.0580
      4 CAF        21.3083    2.4517  -15.2873 C.ar        1 G97      -0.0569
      5 CAI        21.1370    1.0749  -15.0638 C.ar        1 G97      -0.0465
      6 CAW        21.3104    0.1349  -16.1124 C.ar        1 G97       0.0141
      7 C2         21.1325   -1.2619  -15.8834 C.ar        1 G97       0.0921
      8 N1         21.4085   -2.1955  -16.8292 N.ar        1 G97      -0.2553
      9 N3         20.6960   -1.7180  -14.6792 N.ar        1 G97      -0.3009
     10 C4         20.5446   -3.0340  -14.3989 C.ar        1 G97       0.0255
     11 CAM        20.1234   -3.4012  -13.1083 C.ar        1 G97      -0.0253
     12 CAU        20.0050   -4.7624  -12.7405 C.ar        1 G97       0.0730
     13 NAQ        19.5925   -5.1927  -11.4978 N.am        1 G97      -0.2295
     14 CAT        19.6987   -4.5909  -10.3125 C.2         1 G97       0.2258
     15 OAB        20.2739   -3.5215  -10.1567 O.2         1 G97      -0.3745
     16 CAC        19.1408   -5.1300   -9.2122 C.2         1 G97       0.0150
     17 CAA        19.7177   -6.0896   -8.4761 C.2         1 G97      -0.0781
     18 CAK        20.2695   -5.7350  -13.7328 C.ar        1 G97      -0.0283
     19 CAL        20.6928   -5.3688  -15.0291 C.ar        1 G97      -0.0465
     20 C5         20.8403   -4.0090  -15.3867 C.ar        1 G97       0.0455
     21 C6         21.2816   -3.5395  -16.6569 C.ar        1 G97       0.1561
     22 NAR        21.6003   -4.3888  -17.6722 N.pl3       1 G97      -0.2206
     23 CAV        22.0730   -4.1093  -18.9263 C.2         1 G97       0.1818
     24 CAJ        22.4300   -2.9321  -19.5774 C.2         1 G97      -0.0280
     25 CAG        22.8327   -3.2906  -20.8488 C.2         1 G97      -0.0243
     26 NAS        22.7342   -4.6215  -20.9515 N.2         1 G97      -0.2412
     27 NAN        22.2902   -5.0866  -19.8241 N.pl3       1 G97      -0.2006
     28 H1         21.7887   -0.0008  -18.1821 H           1 G97       0.0660
     29 H2         22.1173    2.3418  -18.5423 H           1 G97       0.0628
     30 H3         21.8137    3.9179  -16.7200 H           1 G97       0.0649
     31 H4         21.1671    3.1144  -14.5222 H           1 G97       0.0628
     32 H5         20.8866    0.7724  -14.1204 H           1 G97       0.0660
     33 H6         19.8860   -2.6633  -12.4422 H           1 G97       0.0447
     34 H7         19.1832   -6.0753  -11.4824 H           1 G97       0.2290
     35 H8         18.3008   -4.7197   -8.8704 H           1 G97       0.0698
     36 H9         19.2778   -6.4068   -7.6424 H           1 G97       0.0686
     37 H10        20.5972   -6.4795   -8.7216 H           1 G97       0.0686
     38 H11        20.1718   -6.7290  -13.5117 H           1 G97       0.0570
     39 H12        20.9021   -6.1060  -15.7003 H           1 G97       0.0666
     40 H13        21.4797   -5.3296  -17.4814 H           1 G97       0.2279
     41 H14        22.4084   -1.9783  -19.2249 H           1 G97       0.0216
     42 H15        23.1480   -2.6522  -21.5803 H           1 G97       0.0607
     43 H16        22.1281   -6.0231  -19.6568 H           1 G97       0.2521
@<TRIPOS>BOND
     1     1     2  ar
     2     1     6  ar
     3     2     3  ar
     4     3     4  ar
     5     4     5  ar
     6     5     6  ar
     7     6     7   1
     8     7     8  ar
     9     7     9  ar
    10     8    21  ar
    11     9    10  ar
    12    10    11  ar
    13    10    20  ar
    14    11    12  ar
    15    12    13   1
    16    12    18  ar
    17    13    14  am
    18    14    15   2
    19    14    16   1
    20    16    17   2
    21    18    19  ar
    22    19    20  ar
    23    20    21  ar
    24    21    22   1
    25    22    23   1
    26    23    24   2
    27    23    27   1
    28    24    25   1
    29    25    26   2
    30    26    27   1
    31     1    28   1
    32     2    29   1
    33     3    30   1
    34     4    31   1
    35     5    32   1
    36    11    33   1
    37    13    34   1
    38    16    35   1
    39    17    36   1
    40    17    37   1
    41    18    38   1
    42    19    39   1
    43    22    40   1
    44    24    41   1
    45    25    42   1
    46    27    43   1
@<TRIPOS>SUBSTRUCTURE
     1  G97      1

