@<TRIPOS>MOLECULE
3imc_ligand_009
    20    21
SMALL
GAST_HUCK
****
This file was generated by PARSER (from files_GN.cpp)

@<TRIPOS>ATOM
      1 CAA        15.2591    7.6851    7.4867 C.3         1 BZ3       0.0568
      2 CAB        17.5479   12.1882    3.3127 C.2         1 BZ3       0.0189
      3 CAC        14.2729   10.3759    5.9219 C.ar        1 BZ3      -0.0453
      4 CAD        17.9953   11.4227    4.3861 C.2         1 BZ3      -0.0680
      5 CAE        14.4519   11.1861    4.7807 C.ar        1 BZ3      -0.0486
      6 CAF        16.6977   10.1740    6.1934 C.ar        1 BZ3      -0.0492
      7 NAG        16.2007   12.2071    3.3181 N.pl3       1 BZ3      -0.2845
      8 OAH        15.1872    9.0987    7.7413 O.3         1 BZ3      -0.3299
      9 CAI        15.3898    9.8599    6.6214 C.ar        1 BZ3       0.0727
     10 CAJ        16.8615   10.9748    5.0529 C.ar        1 BZ3      -0.0378
     11 CAK        15.7592   11.4778    4.3585 C.ar        1 BZ3       0.0544
     12 H1         15.0210    7.1587    8.4119 H           1 BZ3       0.0573
     13 H2         16.2670    7.3902    7.1803 H           1 BZ3       0.0573
     14 H3         14.5398    7.3728    6.7217 H           1 BZ3       0.0573
     15 H4         18.1411   12.6572    2.6285 H           1 BZ3       0.0926
     16 H5         13.3265   10.1559    6.2400 H           1 BZ3       0.0481
     17 H6         18.9662   11.2229    4.6325 H           1 BZ3       0.0273
     18 H7         13.6451   11.5597    4.2726 H           1 BZ3       0.0528
     19 H8         17.5167    9.8257    6.7021 H           1 BZ3       0.0430
     20 H9         15.6409   12.6710    2.6780 H           1 BZ3       0.2246
@<TRIPOS>BOND
     1     8     1   1
     2     4     2   2
     3     2     7   1
     4     3     5  ar
     5     9     3  ar
     6    10     4   1
     7     5    11  ar
     8     9     6  ar
     9     6    10  ar
    10    11     7   1
    11     8     9   1
    12    10    11  ar
    13     1    12   1
    14     1    13   1
    15     1    14   1
    16     2    15   1
    17     3    16   1
    18     4    17   1
    19     5    18   1
    20     6    19   1
    21     7    20   1
@<TRIPOS>SUBSTRUCTURE
     1  BZ3      1

