@<TRIPOS>MOLECULE
3imc_ligand_016
    20    21
SMALL
GAST_HUCK
****
This file was generated by PARSER (from files_GN.cpp)

@<TRIPOS>ATOM
      1 CAA        15.4722    9.6078   -5.5912 C.3         1 BZ3       0.0568
      2 CAB        14.1307    8.5855    0.8269 C.2         1 BZ3       0.0189
      3 CAC        14.1693   11.0327   -3.0212 C.ar        1 BZ3      -0.0453
      4 CAD        14.1675    7.8431   -0.3507 C.2         1 BZ3      -0.0680
      5 CAE        14.1486   11.1852   -1.6189 C.ar        1 BZ3      -0.0486
      6 CAF        14.1979    8.5962   -2.7936 C.ar        1 BZ3      -0.0492
      7 NAG        14.1208    9.8951    0.5163 N.pl3       1 BZ3      -0.2845
      8 OAH        14.1713    9.6244   -4.9803 O.3         1 BZ3      -0.3299
      9 CAI        14.2060    9.7476   -3.6145 C.ar        1 BZ3       0.0727
     10 CAJ        14.1771    8.7583   -1.3958 C.ar        1 BZ3      -0.0378
     11 CAK        14.1506   10.0302   -0.8196 C.ar        1 BZ3       0.0544
     12 H1         15.3350    9.5409   -6.6692 H           1 BZ3       0.0573
     13 H2         16.0544    8.7409   -5.2682 H           1 BZ3       0.0573
     14 H3         16.0332   10.5220   -5.3784 H           1 BZ3       0.0573
     15 H4         14.1091    8.2024    1.7736 H           1 BZ3       0.0926
     16 H5         14.1594   11.8615   -3.6142 H           1 BZ3       0.0481
     17 H6         14.1773    6.8245   -0.4287 H           1 BZ3       0.0273
     18 H7         14.1257   12.1145   -1.1925 H           1 BZ3       0.0528
     19 H8         14.1998    7.6613   -3.2052 H           1 BZ3       0.0430
     20 H9         14.0924   10.6251    1.1550 H           1 BZ3       0.2246
@<TRIPOS>BOND
     1     8     1   1
     2     4     2   2
     3     2     7   1
     4     3     5  ar
     5     9     3  ar
     6    10     4   1
     7     5    11  ar
     8     9     6  ar
     9     6    10  ar
    10    11     7   1
    11     8     9   1
    12    10    11  ar
    13     1    12   1
    14     1    13   1
    15     1    14   1
    16     2    15   1
    17     3    16   1
    18     4    17   1
    19     5    18   1
    20     6    19   1
    21     7    20   1
@<TRIPOS>SUBSTRUCTURE
     1  BZ3      1

