@<TRIPOS>MOLECULE
3imc_ligand_010
    20    21
SMALL
GAST_HUCK
****
This file was generated by PARSER (from files_GN.cpp)

@<TRIPOS>ATOM
      1 CAA        17.0176   12.8914    2.9057 C.3         1 BZ3       0.0568
      2 CAB        14.2590    7.7678    6.4148 C.2         1 BZ3       0.0189
      3 CAC        17.3893   10.8764    5.2287 C.ar        1 BZ3      -0.0453
      4 CAD        13.7607    8.9006    5.7758 C.2         1 BZ3      -0.0680
      5 CAE        17.2650    9.6044    5.8260 C.ar        1 BZ3      -0.0486
      6 CAF        14.9711   10.9682    4.8585 C.ar        1 BZ3      -0.0492
      7 NAG        15.5961    7.8734    6.5042 N.pl3       1 BZ3      -0.2845
      8 OAH        16.3609   12.8077    4.1849 O.3         1 BZ3      -0.3299
      9 CAI        16.2545   11.5488    4.7156 C.ar        1 BZ3       0.0727
     10 CAJ        14.8549    9.7146    5.4828 C.ar        1 BZ3      -0.0378
     11 CAK        15.9822    9.0392    5.9579 C.ar        1 BZ3       0.0544
     12 H1         17.0696   13.9406    2.6202 H           1 BZ3       0.0573
     13 H2         16.4589   12.3602    2.1357 H           1 BZ3       0.0573
     14 H3         18.0350   12.5012    2.9490 H           1 BZ3       0.0573
     15 H4         13.7084    6.9837    6.7589 H           1 BZ3       0.0926
     16 H5         18.3076   11.3171    5.1721 H           1 BZ3       0.0481
     17 H6         12.7783    9.0971    5.5731 H           1 BZ3       0.0273
     18 H7         18.0840    9.1025    6.1795 H           1 BZ3       0.0528
     19 H8         14.1356   11.4597    4.5349 H           1 BZ3       0.0430
     20 H9         16.1892    7.2139    6.8958 H           1 BZ3       0.2246
@<TRIPOS>BOND
     1     8     1   1
     2     4     2   2
     3     2     7   1
     4     3     5  ar
     5     9     3  ar
     6    10     4   1
     7     5    11  ar
     8     9     6  ar
     9     6    10  ar
    10    11     7   1
    11     8     9   1
    12    10    11  ar
    13     1    12   1
    14     1    13   1
    15     1    14   1
    16     2    15   1
    17     3    16   1
    18     4    17   1
    19     5    18   1
    20     6    19   1
    21     7    20   1
@<TRIPOS>SUBSTRUCTURE
     1  BZ3      1

