@<TRIPOS>MOLECULE
3imc_ligand_019
    20    21
SMALL
GAST_HUCK
****
This file was generated by PARSER (from files_GN.cpp)

@<TRIPOS>ATOM
      1 CAA        18.1880   13.8207    1.6515 C.3         1 BZ3       0.0568
      2 CAB        15.6849    9.3963   -2.4202 C.2         1 BZ3       0.0189
      3 CAC        17.3436   10.5760    1.6664 C.ar        1 BZ3      -0.0453
      4 CAD        16.5113   10.5165   -2.4126 C.2         1 BZ3      -0.0680
      5 CAE        16.5115    9.6178    1.0487 C.ar        1 BZ3      -0.0486
      6 CAF        17.7443   11.6524   -0.4954 C.ar        1 BZ3      -0.0492
      7 NAG        15.5771    8.9252   -1.1644 N.pl3       1 BZ3      -0.2845
      8 OAH        18.7713   12.5081    1.5218 O.3         1 BZ3      -0.3299
      9 CAI        17.9502   11.6021    0.9033 C.ar        1 BZ3       0.0727
     10 CAJ        16.9057   10.7013   -1.0955 C.ar        1 BZ3      -0.0378
     11 CAK        16.3045    9.6957   -0.3391 C.ar        1 BZ3       0.0544
     12 H1         18.8988   14.4684    2.1584 H           1 BZ3       0.0573
     13 H2         17.2718   13.7910    2.2456 H           1 BZ3       0.0573
     14 H3         17.9732   14.2644    0.6751 H           1 BZ3       0.0573
     15 H4         15.2303    8.9980   -3.2435 H           1 BZ3       0.0926
     16 H5         17.5086   10.5248    2.6744 H           1 BZ3       0.0481
     17 H6         16.7782   11.0877   -3.2170 H           1 BZ3       0.0273
     18 H7         16.0712    8.8771    1.5982 H           1 BZ3       0.0528
     19 H8         18.1942   12.3685   -1.0652 H           1 BZ3       0.0430
     20 H9         15.0469    8.1596   -0.8940 H           1 BZ3       0.2246
@<TRIPOS>BOND
     1     8     1   1
     2     4     2   2
     3     2     7   1
     4     3     5  ar
     5     9     3  ar
     6    10     4   1
     7     5    11  ar
     8     9     6  ar
     9     6    10  ar
    10    11     7   1
    11     8     9   1
    12    10    11  ar
    13     1    12   1
    14     1    13   1
    15     1    14   1
    16     2    15   1
    17     3    16   1
    18     4    17   1
    19     5    18   1
    20     6    19   1
    21     7    20   1
@<TRIPOS>SUBSTRUCTURE
     1  BZ3      1

