@<TRIPOS>MOLECULE
3imc_ligand_012
    20    21
SMALL
GAST_HUCK
****
This file was generated by PARSER (from files_GN.cpp)

@<TRIPOS>ATOM
      1 CAA        17.0981    9.1400    2.4534 C.3         1 BZ3       0.0568
      2 CAB        10.5994   10.6911    2.9770 C.2         1 BZ3       0.0189
      3 CAC        14.1567    8.0090    1.9884 C.ar        1 BZ3      -0.0453
      4 CAD        11.7876   11.3579    2.6943 C.2         1 BZ3      -0.0680
      5 CAE        12.7916    7.9453    2.3474 C.ar        1 BZ3      -0.0486
      6 CAF        14.0986   10.4578    2.0833 C.ar        1 BZ3      -0.0492
      7 NAG        10.8084    9.3660    2.8878 N.pl3       1 BZ3      -0.2845
      8 OAH        16.1108    9.3110    1.4234 O.3         1 BZ3      -0.3299
      9 CAI        14.8131    9.2596    1.8658 C.ar        1 BZ3       0.0727
     10 CAJ        12.7375   10.3744    2.4339 C.ar        1 BZ3      -0.0378
     11 CAK        12.0937    9.1431    2.5632 C.ar        1 BZ3       0.0544
     12 H1         18.0776    9.1003    1.9746 H           1 BZ3       0.0573
     13 H2         16.9578    8.2092    3.0096 H           1 BZ3       0.0573
     14 H3         17.0868    9.9850    3.1443 H           1 BZ3       0.0573
     15 H4          9.7047   11.1330    3.2033 H           1 BZ3       0.0926
     16 H5         14.6717    7.1435    1.8083 H           1 BZ3       0.0481
     17 H6         11.9288   12.3672    2.6750 H           1 BZ3       0.0273
     18 H7         12.3193    7.0421    2.4262 H           1 BZ3       0.0528
     19 H8         14.5502   11.3658    1.9766 H           1 BZ3       0.0430
     20 H9         10.1198    8.6962    3.0207 H           1 BZ3       0.2246
@<TRIPOS>BOND
     1     8     1   1
     2     4     2   2
     3     2     7   1
     4     3     5  ar
     5     9     3  ar
     6    10     4   1
     7     5    11  ar
     8     9     6  ar
     9     6    10  ar
    10    11     7   1
    11     8     9   1
    12    10    11  ar
    13     1    12   1
    14     1    13   1
    15     1    14   1
    16     2    15   1
    17     3    16   1
    18     4    17   1
    19     5    18   1
    20     6    19   1
    21     7    20   1
@<TRIPOS>SUBSTRUCTURE
     1  BZ3      1

