@<TRIPOS>MOLECULE
3imc_ligand_015
    20    21
SMALL
GAST_HUCK
****
This file was generated by PARSER (from files_GN.cpp)

@<TRIPOS>ATOM
      1 CAA        16.2410    9.6249   -0.2556 C.3         1 BZ3       0.0568
      2 CAB        17.5123   14.3694    4.0946 C.2         1 BZ3       0.0189
      3 CAC        17.9795   12.4139    0.0080 C.ar        1 BZ3      -0.0453
      4 CAD        17.2743   12.9983    4.0638 C.2         1 BZ3      -0.0680
      5 CAE        18.0716   13.6680    0.6458 C.ar        1 BZ3      -0.0486
      6 CAF        17.3657   11.3419    2.1238 C.ar        1 BZ3      -0.0492
      7 NAG        17.8247   14.7890    2.8561 N.pl3       1 BZ3      -0.2845
      8 OAH        17.5717   10.0609    0.0821 O.3         1 BZ3      -0.3299
      9 CAI        17.6139   11.2574    0.7348 C.ar        1 BZ3       0.0727
     10 CAJ        17.4589   12.5976    2.7478 C.ar        1 BZ3      -0.0378
     11 CAK        17.8042   13.7392    2.0216 C.ar        1 BZ3       0.0544
     12 H1         16.3190    8.6957   -0.8194 H           1 BZ3       0.0573
     13 H2         15.7285   10.3595   -0.8822 H           1 BZ3       0.0573
     14 H3         15.6451    9.4307    0.6406 H           1 BZ3       0.0573
     15 H4         17.4838   14.9609    4.9231 H           1 BZ3       0.0926
     16 H5         18.1823   12.3405   -0.9904 H           1 BZ3       0.0481
     17 H6         17.0298   12.4050    4.8588 H           1 BZ3       0.0273
     18 H7         18.3283   14.5066    0.1225 H           1 BZ3       0.0528
     19 H8         17.1237   10.5094    2.6643 H           1 BZ3       0.0430
     20 H9         18.0389   15.7030    2.6094 H           1 BZ3       0.2246
@<TRIPOS>BOND
     1     8     1   1
     2     4     2   2
     3     2     7   1
     4     3     5  ar
     5     9     3  ar
     6    10     4   1
     7     5    11  ar
     8     9     6  ar
     9     6    10  ar
    10    11     7   1
    11     8     9   1
    12    10    11  ar
    13     1    12   1
    14     1    13   1
    15     1    14   1
    16     2    15   1
    17     3    16   1
    18     4    17   1
    19     5    18   1
    20     6    19   1
    21     7    20   1
@<TRIPOS>SUBSTRUCTURE
     1  BZ3      1

