@<TRIPOS>MOLECULE
3imc_ligand_031
    20    21
SMALL
GAST_HUCK
****
This file was generated by PARSER (from files_GN.cpp)

@<TRIPOS>ATOM
      1 CAA         9.9448   10.2722   -4.4618 C.3         1 BZ3       0.0568
      2 CAB        16.4752    9.0891   -5.2323 C.2         1 BZ3       0.0189
      3 CAC        12.1036    8.1736   -4.3134 C.ar        1 BZ3      -0.0453
      4 CAD        15.7391   10.1540   -4.7234 C.2         1 BZ3      -0.0680
      5 CAE        13.2772    7.5599   -4.7888 C.ar        1 BZ3      -0.0486
      6 CAF        13.2954   10.2930   -4.0202 C.ar        1 BZ3      -0.0492
      7 NAG        15.6763    8.0106   -5.3137 N.pl3       1 BZ3      -0.2845
      8 OAH        10.9676   10.1262   -3.4606 O.3         1 BZ3      -0.3299
      9 CAI        12.1039    9.5391   -3.9375 C.ar        1 BZ3       0.0727
     10 CAJ        14.4555    9.6736   -4.5077 C.ar        1 BZ3      -0.0378
     11 CAK        14.4481    8.3331   -4.8855 C.ar        1 BZ3       0.0544
     12 H1          9.0987   10.7963   -4.0193 H           1 BZ3       0.0573
     13 H2          9.5956    9.2976   -4.8093 H           1 BZ3       0.0573
     14 H3         10.2992   10.8562   -5.3151 H           1 BZ3       0.0573
     15 H4         17.4602    9.1105   -5.5006 H           1 BZ3       0.0926
     16 H5         11.2413    7.6296   -4.2523 H           1 BZ3       0.0481
     17 H6         16.0754   11.0999   -4.5479 H           1 BZ3       0.0273
     18 H7         13.2756    6.5757   -5.0639 H           1 BZ3       0.0528
     19 H8         13.3166   11.2695   -3.7374 H           1 BZ3       0.0430
     20 H9         15.9454    7.1386   -5.6370 H           1 BZ3       0.2246
@<TRIPOS>BOND
     1     8     1   1
     2     4     2   2
     3     2     7   1
     4     3     5  ar
     5     9     3  ar
     6    10     4   1
     7     5    11  ar
     8     9     6  ar
     9     6    10  ar
    10    11     7   1
    11     8     9   1
    12    10    11  ar
    13     1    12   1
    14     1    13   1
    15     1    14   1
    16     2    15   1
    17     3    16   1
    18     4    17   1
    19     5    18   1
    20     6    19   1
    21     7    20   1
@<TRIPOS>SUBSTRUCTURE
     1  BZ3      1

