@<TRIPOS>MOLECULE
3imc_ligand_013
    20    21
SMALL
GAST_HUCK
****
This file was generated by PARSER (from files_GN.cpp)

@<TRIPOS>ATOM
      1 CAA        12.7911    8.4705    3.2761 C.3         1 BZ3       0.0568
      2 CAB        14.1374    8.6164   -3.1192 C.2         1 BZ3       0.0189
      3 CAC        12.8558   10.6846    0.7393 C.ar        1 BZ3      -0.0453
      4 CAD        14.4620    7.9431   -1.9449 C.2         1 BZ3      -0.0680
      5 CAE        12.7915   10.8315   -0.6616 C.ar        1 BZ3      -0.0486
      6 CAF        14.0553    8.5598    0.4964 C.ar        1 BZ3      -0.0492
      7 NAG        13.4808    9.7496   -2.8068 N.pl3       1 BZ3      -0.2845
      8 OAH        13.6083    9.4871    2.6808 O.3         1 BZ3      -0.3299
      9 CAI        13.4784    9.5555    1.3217 C.ar        1 BZ3       0.0727
     10 CAJ        13.9857    8.7209   -0.8967 C.ar        1 BZ3      -0.0378
     11 CAK        13.3696    9.8354   -1.4697 C.ar        1 BZ3       0.0544
     12 H1         12.8944    8.5451    4.3560 H           1 BZ3       0.0573
     13 H2         13.1230    7.4793    2.9637 H           1 BZ3       0.0573
     14 H3         11.7374    8.6027    3.0225 H           1 BZ3       0.0573
     15 H4         14.3777    8.3146   -4.0653 H           1 BZ3       0.0926
     16 H5         12.4441   11.4008    1.3399 H           1 BZ3       0.0481
     17 H6         14.9800    7.0654   -1.8682 H           1 BZ3       0.0273
     18 H7         12.3463   11.6485   -1.0827 H           1 BZ3       0.0528
     19 H8         14.5193    7.7457    0.9031 H           1 BZ3       0.0430
     20 H9         13.1516   10.4050   -3.4419 H           1 BZ3       0.2246
@<TRIPOS>BOND
     1     8     1   1
     2     4     2   2
     3     2     7   1
     4     3     5  ar
     5     9     3  ar
     6    10     4   1
     7     5    11  ar
     8     9     6  ar
     9     6    10  ar
    10    11     7   1
    11     8     9   1
    12    10    11  ar
    13     1    12   1
    14     1    13   1
    15     1    14   1
    16     2    15   1
    17     3    16   1
    18     4    17   1
    19     5    18   1
    20     6    19   1
    21     7    20   1
@<TRIPOS>SUBSTRUCTURE
     1  BZ3      1

