@<TRIPOS>MOLECULE
3imc_ligand_020
    20    21
SMALL
GAST_HUCK
****
This file was generated by PARSER (from files_GN.cpp)

@<TRIPOS>ATOM
      1 CAA        12.2394    9.0655   -4.8545 C.3         1 BZ3       0.0568
      2 CAB        16.3291    9.9796    0.0363 C.2         1 BZ3       0.0189
      3 CAC        12.2620   10.6063   -1.9370 C.ar        1 BZ3      -0.0453
      4 CAD        15.9273    8.9741   -0.8380 C.2         1 BZ3      -0.0680
      5 CAE        13.1364   11.2038   -1.0065 C.ar        1 BZ3      -0.0486
      6 CAF        13.8089    8.7287   -2.2223 C.ar        1 BZ3      -0.0492
      7 NAG        15.3640   10.9175    0.0966 N.pl3       1 BZ3      -0.2845
      8 OAH        11.7746    8.8484   -3.5087 O.3         1 BZ3      -0.3299
      9 CAI        12.6114    9.3928   -2.5745 C.ar        1 BZ3       0.0727
     10 CAJ        14.6757    9.3422   -1.3070 C.ar        1 BZ3      -0.0378
     11 CAK        14.3522   10.5620   -0.7117 C.ar        1 BZ3       0.0544
     12 H1         11.5551    8.5771   -5.5469 H           1 BZ3       0.0573
     13 H2         13.2302    8.6350   -5.0173 H           1 BZ3       0.0573
     14 H3         12.2676   10.1314   -5.0941 H           1 BZ3       0.0573
     15 H4         17.2129   10.0030    0.5463 H           1 BZ3       0.0926
     16 H5         11.3831   11.0700   -2.1701 H           1 BZ3       0.0481
     17 H6         16.4456    8.1330   -1.0942 H           1 BZ3       0.0273
     18 H7         12.8980   12.0951   -0.5725 H           1 BZ3       0.0528
     19 H8         14.0616    7.8411   -2.6601 H           1 BZ3       0.0430
     20 H9         15.3944   11.7281    0.6298 H           1 BZ3       0.2246
@<TRIPOS>BOND
     1     8     1   1
     2     4     2   2
     3     2     7   1
     4     3     5  ar
     5     9     3  ar
     6    10     4   1
     7     5    11  ar
     8     9     6  ar
     9     6    10  ar
    10    11     7   1
    11     8     9   1
    12    10    11  ar
    13     1    12   1
    14     1    13   1
    15     1    14   1
    16     2    15   1
    17     3    16   1
    18     4    17   1
    19     5    18   1
    20     6    19   1
    21     7    20   1
@<TRIPOS>SUBSTRUCTURE
     1  BZ3      1

