@<TRIPOS>MOLECULE
3imc_ligand_025
    20    21
SMALL
GAST_HUCK
****
This file was generated by PARSER (from files_GN.cpp)

@<TRIPOS>ATOM
      1 CAA        15.3343    8.4018    1.9350 C.3         1 BZ3       0.0568
      2 CAB        17.9284   14.4593    2.2684 C.2         1 BZ3       0.0189
      3 CAC        16.5870   10.4813    4.0594 C.ar        1 BZ3      -0.0453
      4 CAD        17.9247   13.3808    1.3876 C.2         1 BZ3      -0.0680
      5 CAE        16.7933   11.8329    4.4042 C.ar        1 BZ3      -0.0486
      6 CAF        17.2883   10.9316    1.7542 C.ar        1 BZ3      -0.0492
      7 NAG        17.5077   14.0368    3.4746 N.pl3       1 BZ3      -0.2845
      8 OAH        16.6450    8.7068    2.4426 O.3         1 BZ3      -0.3299
      9 CAI        16.8185   10.0302    2.7381 C.ar        1 BZ3       0.0727
     10 CAJ        17.4856   12.2781    2.1104 C.ar        1 BZ3      -0.0378
     11 CAK        17.2383   12.7221    3.4114 C.ar        1 BZ3       0.0544
     12 H1         15.2766    7.3247    1.7751 H           1 BZ3       0.0573
     13 H2         15.1550    8.8996    0.9787 H           1 BZ3       0.0573
     14 H3         14.5516    8.6821    2.6453 H           1 BZ3       0.0573
     15 H4         18.2092   15.4143    2.0411 H           1 BZ3       0.0926
     16 H5         16.2673    9.8228    4.7731 H           1 BZ3       0.0481
     17 H6         18.1959   13.4005    0.4030 H           1 BZ3       0.0273
     18 H7         16.6290   12.1570    5.3586 H           1 BZ3       0.0528
     19 H8         17.4792   10.6118    0.8024 H           1 BZ3       0.0430
     20 H9         17.4238   14.5917    4.2670 H           1 BZ3       0.2246
@<TRIPOS>BOND
     1     8     1   1
     2     4     2   2
     3     2     7   1
     4     3     5  ar
     5     9     3  ar
     6    10     4   1
     7     5    11  ar
     8     9     6  ar
     9     6    10  ar
    10    11     7   1
    11     8     9   1
    12    10    11  ar
    13     1    12   1
    14     1    13   1
    15     1    14   1
    16     2    15   1
    17     3    16   1
    18     4    17   1
    19     5    18   1
    20     6    19   1
    21     7    20   1
@<TRIPOS>SUBSTRUCTURE
     1  BZ3      1

