@<TRIPOS>MOLECULE
3imc_ligand_021
    20    21
SMALL
GAST_HUCK
****
This file was generated by PARSER (from files_GN.cpp)

@<TRIPOS>ATOM
      1 CAA        17.5268   11.8292    4.1043 C.3         1 BZ3       0.0568
      2 CAB        15.8222    9.4778   -1.8925 C.2         1 BZ3       0.0189
      3 CAC        18.3644   11.8870    1.0319 C.ar        1 BZ3      -0.0453
      4 CAD        15.8065    9.0236   -0.5761 C.2         1 BZ3      -0.0680
      5 CAE        17.9787   11.8489   -0.3237 C.ar        1 BZ3      -0.0486
      6 CAF        16.9829    9.9196    1.5095 C.ar        1 BZ3      -0.0492
      7 NAG        16.6020   10.5712   -1.9671 N.pl3       1 BZ3      -0.2845
      8 OAH        18.2928   10.9604    3.2527 O.3         1 BZ3      -0.3299
      9 CAI        17.8619   10.9346    1.9521 C.ar        1 BZ3       0.0727
     10 CAJ        16.6164    9.8879    0.1528 C.ar        1 BZ3      -0.0378
     11 CAK        17.0996   10.8401   -0.7479 C.ar        1 BZ3       0.0544
     12 H1         17.9665   11.7984    5.1011 H           1 BZ3       0.0573
     13 H2         16.4892   11.4900    4.1768 H           1 BZ3       0.0573
     14 H3         17.5462   12.8672    3.7578 H           1 BZ3       0.0573
     15 H4         15.3269    9.0504   -2.6766 H           1 BZ3       0.0926
     16 H5         19.0140   12.6098    1.3525 H           1 BZ3       0.0481
     17 H6         15.3043    8.2104   -0.2168 H           1 BZ3       0.0273
     18 H7         18.3464   12.5301   -0.9898 H           1 BZ3       0.0528
     19 H8         16.6235    9.2156    2.1590 H           1 BZ3       0.0430
     20 H9         16.7896   11.0754   -2.7743 H           1 BZ3       0.2246
@<TRIPOS>BOND
     1     8     1   1
     2     4     2   2
     3     2     7   1
     4     3     5  ar
     5     9     3  ar
     6    10     4   1
     7     5    11  ar
     8     9     6  ar
     9     6    10  ar
    10    11     7   1
    11     8     9   1
    12    10    11  ar
    13     1    12   1
    14     1    13   1
    15     1    14   1
    16     2    15   1
    17     3    16   1
    18     4    17   1
    19     5    18   1
    20     6    19   1
    21     7    20   1
@<TRIPOS>SUBSTRUCTURE
     1  BZ3      1

