@<TRIPOS>MOLECULE
3imc_ligand_027
    20    21
SMALL
GAST_HUCK
****
This file was generated by PARSER (from files_GN.cpp)

@<TRIPOS>ATOM
      1 CAA        14.2264   11.9430    3.4122 C.3         1 BZ3       0.0568
      2 CAB        16.3110   10.6590   -2.7417 C.2         1 BZ3       0.0189
      3 CAC        17.0041   11.4325    1.7018 C.ar        1 BZ3      -0.0453
      4 CAD        15.2095   10.4397   -1.9203 C.2         1 BZ3      -0.0680
      5 CAE        17.6601   11.5037    0.4545 C.ar        1 BZ3      -0.0486
      6 CAF        14.9498   10.6636    0.6107 C.ar        1 BZ3      -0.0492
      7 NAG        17.3414   11.0781   -1.9865 N.pl3       1 BZ3      -0.2845
      8 OAH        15.0780   10.8555    3.0164 O.3         1 BZ3      -0.3299
      9 CAI        15.6540   11.0132    1.7856 C.ar        1 BZ3       0.0727
     10 CAJ        15.6165   10.7361   -0.6259 C.ar        1 BZ3      -0.0378
     11 CAK        16.9501   11.1405   -0.7015 C.ar        1 BZ3       0.0544
     12 H1         13.8814   11.7483    4.4259 H           1 BZ3       0.0573
     13 H2         13.3512   12.0136    2.7644 H           1 BZ3       0.0573
     14 H3         14.7612   12.8949    3.4127 H           1 BZ3       0.0573
     15 H4         16.3369   10.5195   -3.7533 H           1 BZ3       0.0926
     16 H5         17.5181   11.6691    2.5532 H           1 BZ3       0.0481
     17 H6         14.2873   10.1105   -2.2128 H           1 BZ3       0.0273
     18 H7         18.6400   11.7930    0.3943 H           1 BZ3       0.0528
     19 H8         13.9801   10.3401    0.6563 H           1 BZ3       0.0430
     20 H9         18.2282   11.2880   -2.3158 H           1 BZ3       0.2246
@<TRIPOS>BOND
     1     8     1   1
     2     4     2   2
     3     2     7   1
     4     3     5  ar
     5     9     3  ar
     6    10     4   1
     7     5    11  ar
     8     9     6  ar
     9     6    10  ar
    10    11     7   1
    11     8     9   1
    12    10    11  ar
    13     1    12   1
    14     1    13   1
    15     1    14   1
    16     2    15   1
    17     3    16   1
    18     4    17   1
    19     5    18   1
    20     6    19   1
    21     7    20   1
@<TRIPOS>SUBSTRUCTURE
     1  BZ3      1

