@<TRIPOS>MOLECULE
3imc_ligand_030
    20    21
SMALL
GAST_HUCK
****
This file was generated by PARSER (from files_GN.cpp)

@<TRIPOS>ATOM
      1 CAA        18.1776   14.1950    0.6738 C.3         1 BZ3       0.0568
      2 CAB        15.4254    8.2286    1.8219 C.2         1 BZ3       0.0189
      3 CAC        18.6933   11.4008    1.9007 C.ar        1 BZ3      -0.0453
      4 CAD        15.3776    9.1564    0.7841 C.2         1 BZ3      -0.0680
      5 CAE        18.2405   10.2712    2.6088 C.ar        1 BZ3      -0.0486
      6 CAF        16.8861   11.1550    0.2660 C.ar        1 BZ3      -0.0492
      7 NAG        16.4731    8.5178    2.6166 N.pl3       1 BZ3      -0.2845
      8 OAH        18.5020   12.9372    0.0568 O.3         1 BZ3      -0.3299
      9 CAI        18.0196   11.8542    0.7417 C.ar        1 BZ3       0.0727
     10 CAJ        16.4398   10.0289    0.9819 C.ar        1 BZ3      -0.0378
     11 CAK        17.1032    9.5987    2.1333 C.ar        1 BZ3       0.0544
     12 H1         18.5672   14.9957    0.0463 H           1 BZ3       0.0573
     13 H2         18.6295   14.2847    1.6653 H           1 BZ3       0.0573
     14 H3         17.0991   14.3305    0.7533 H           1 BZ3       0.0573
     15 H4         14.7807    7.4464    1.9492 H           1 BZ3       0.0926
     16 H5         19.5141   11.9060    2.2353 H           1 BZ3       0.0481
     17 H6         14.6949    9.1868    0.0249 H           1 BZ3       0.0273
     18 H7         18.7258    9.9535    3.4509 H           1 BZ3       0.0528
     19 H8         16.3969   11.4643   -0.5772 H           1 BZ3       0.0430
     20 H9         16.7483    8.0226    3.4044 H           1 BZ3       0.2246
@<TRIPOS>BOND
     1     8     1   1
     2     4     2   2
     3     2     7   1
     4     3     5  ar
     5     9     3  ar
     6    10     4   1
     7     5    11  ar
     8     9     6  ar
     9     6    10  ar
    10    11     7   1
    11     8     9   1
    12    10    11  ar
    13     1    12   1
    14     1    13   1
    15     1    14   1
    16     2    15   1
    17     3    16   1
    18     4    17   1
    19     5    18   1
    20     6    19   1
    21     7    20   1
@<TRIPOS>SUBSTRUCTURE
     1  BZ3      1

