@<TRIPOS>MOLECULE
3imc_ligand_017
    20    21
SMALL
GAST_HUCK
****
This file was generated by PARSER (from files_GN.cpp)

@<TRIPOS>ATOM
      1 CAA        17.8924   11.2956    4.9685 C.3         1 BZ3       0.0568
      2 CAB        11.9028    9.0456    2.7228 C.2         1 BZ3       0.0189
      3 CAC        15.3492   11.9416    3.4817 C.ar        1 BZ3      -0.0453
      4 CAD        13.1564    8.4584    2.8394 C.2         1 BZ3      -0.0680
      5 CAE        13.9509   11.9124    3.2912 C.ar        1 BZ3      -0.0486
      6 CAF        15.4523    9.5042    3.2908 C.ar        1 BZ3      -0.0492
      7 NAG        12.0285   10.3758    2.8786 N.pl3       1 BZ3      -0.2845
      8 OAH        17.4566   10.7578    3.7007 O.3         1 BZ3      -0.3299
      9 CAI        16.1002   10.7418    3.5184 C.ar        1 BZ3       0.0727
     10 CAJ        14.0579    9.4879    3.0823 C.ar        1 BZ3      -0.0378
     11 CAK        13.3219   10.6716    3.0934 C.ar        1 BZ3       0.0544
     12 H1         18.9711   11.1592    5.0333 H           1 BZ3       0.0573
     13 H2         17.4329   10.7816    5.8160 H           1 BZ3       0.0573
     14 H3         17.6824   12.3636    5.0371 H           1 BZ3       0.0573
     15 H4         11.0225    8.5502    2.5545 H           1 BZ3       0.0926
     16 H5         15.8284   12.8393    3.5960 H           1 BZ3       0.0481
     17 H6         13.3649    7.4624    2.7631 H           1 BZ3       0.0273
     18 H7         13.4041   12.7729    3.2756 H           1 BZ3       0.0528
     19 H8         15.9839    8.6344    3.2752 H           1 BZ3       0.0430
     20 H9         11.3022   11.0163    2.8438 H           1 BZ3       0.2246
@<TRIPOS>BOND
     1     8     1   1
     2     4     2   2
     3     2     7   1
     4     3     5  ar
     5     9     3  ar
     6    10     4   1
     7     5    11  ar
     8     9     6  ar
     9     6    10  ar
    10    11     7   1
    11     8     9   1
    12    10    11  ar
    13     1    12   1
    14     1    13   1
    15     1    14   1
    16     2    15   1
    17     3    16   1
    18     4    17   1
    19     5    18   1
    20     6    19   1
    21     7    20   1
@<TRIPOS>SUBSTRUCTURE
     1  BZ3      1

