@<TRIPOS>MOLECULE
3imc_ligand_018
    20    21
SMALL
GAST_HUCK
****
This file was generated by PARSER (from files_GN.cpp)

@<TRIPOS>ATOM
      1 CAA        21.1769   10.0525    5.3097 C.3         1 BZ3       0.0568
      2 CAB        15.2964    9.7677    1.4267 C.2         1 BZ3       0.0189
      3 CAC        18.8875    8.6612    4.0062 C.ar        1 BZ3      -0.0453
      4 CAD        16.1519   10.8170    1.7455 C.2         1 BZ3      -0.0680
      5 CAE        17.7456    8.0920    3.4125 C.ar        1 BZ3      -0.0486
      6 CAF        18.2979   10.8595    3.1247 C.ar        1 BZ3      -0.0492
      7 NAG        15.7617    8.6400    1.9930 N.pl3       1 BZ3      -0.2845
      8 OAH        20.2843   10.6969    4.3826 O.3         1 BZ3      -0.3299
      9 CAI        19.1794   10.0439    3.8758 C.ar        1 BZ3       0.0727
     10 CAJ        17.1614   10.2820    2.5294 C.ar        1 BZ3      -0.0378
     11 CAK        16.8887    8.9192    2.6682 C.ar        1 BZ3       0.0544
     12 H1         21.8990   10.7871    5.6595 H           1 BZ3       0.0573
     13 H2         21.7198    9.2416    4.8234 H           1 BZ3       0.0573
     14 H3         20.6329    9.6693    6.1718 H           1 BZ3       0.0573
     15 H4         14.4544    9.8350    0.8500 H           1 BZ3       0.0926
     16 H5         19.5167    8.0434    4.5369 H           1 BZ3       0.0481
     17 H6         16.0573   11.7915    1.4517 H           1 BZ3       0.0273
     18 H7         17.5340    7.0911    3.5100 H           1 BZ3       0.0528
     19 H8         18.4802   11.8533    3.0038 H           1 BZ3       0.0430
     20 H9         15.3561    7.7591    1.9143 H           1 BZ3       0.2246
@<TRIPOS>BOND
     1     8     1   1
     2     4     2   2
     3     2     7   1
     4     3     5  ar
     5     9     3  ar
     6    10     4   1
     7     5    11  ar
     8     9     6  ar
     9     6    10  ar
    10    11     7   1
    11     8     9   1
    12    10    11  ar
    13     1    12   1
    14     1    13   1
    15     1    14   1
    16     2    15   1
    17     3    16   1
    18     4    17   1
    19     5    18   1
    20     6    19   1
    21     7    20   1
@<TRIPOS>SUBSTRUCTURE
     1  BZ3      1

