@<TRIPOS>MOLECULE
3ivg_ligand_001
    46    49
SMALL
GAST_HUCK
****
This file was generated by PARSER (from files_GN.cpp)

@<TRIPOS>ATOM
      1 C           2.9925  -14.3962   37.7918 C.2         1 FG5       0.0635
      2 N           5.2861  -13.6513   37.8425 N.pl3       1 FG5      -0.2501
      3 O           2.0965  -14.3542   36.7816 O.co2       1 FG5      -0.5663
      4 CA          3.9073  -13.2711   38.0324 C.3         1 FG5       0.1031
      5 CAA        10.9515  -14.6991   40.7869 C.3         1 FG5       0.0567
      6 OAC         6.8039  -16.6420   35.1741 O.2         1 FG5      -0.1460
      7 OAD         7.6217  -15.8990   32.9439 O.2         1 FG5      -0.1460
      8 CAF         1.4806  -19.0428   31.3838 C.ar        1 FG5      -0.0767
      9 CAG         2.4585  -19.4218   30.4346 C.ar        1 FG5      -0.0734
     10 CAH         7.3064  -13.9915   40.9909 C.ar        1 FG5      -0.0489
     11 CAI         1.8160  -18.1895   32.4549 C.ar        1 FG5      -0.0712
     12 CAJ         3.7825  -18.9445   30.5452 C.ar        1 FG5      -0.0310
     13 CAK         6.1404  -13.7709   40.2273 C.ar        1 FG5      -0.0524
     14 CAL         8.6092  -14.3226   38.9578 C.ar        1 FG5      -0.0541
     15 CAM         7.2342  -14.1200   36.8528 C.2         1 FG5      -0.0688
     16 CAN         3.7640  -16.8952   33.4678 C.2         1 FG5      -0.0189
     17 CAO         5.2245  -13.8167   35.2994 C.3         1 FG5       0.0846
     18 NAQ         6.0066  -14.2503   34.1913 N.am        1 FG5      -0.2288
     19 OAR         9.6161  -14.4186   41.2385 O.3         1 FG5      -0.3308
     20 OAS         5.2862  -17.5109   31.9318 O.3         1 FG5      -0.2287
     21 CAU         8.5539  -14.2550   40.3769 C.ar        1 FG5       0.0691
     22 CAV         5.8829  -13.8656   36.6324 C.2         1 FG5       0.0618
     23 CAW         5.0893  -16.7766   33.0562 C.2         1 FG5       0.2522
     24 CAX         3.1390  -17.7213   32.5490 C.ar        1 FG5      -0.0094
     25 CAY         7.4415  -14.1089   38.2216 C.ar        1 FG5      -0.0477
     26 CAZ         4.1053  -18.0900   31.6105 C.ar        1 FG5       0.1269
     27 CBA         6.2113  -13.8229   38.8205 C.ar        1 FG5       0.0540
     28 SBC         6.3285  -15.8750   33.8637 S.o2        1 FG5       0.1039
     29 OXT         2.8419  -15.3572   38.7273 O.co2       1 FG5      -0.5663
     30 H1          3.7198  -12.9026   39.0425 H           1 FG5       0.0766
     31 H2          3.6650  -12.4468   37.3574 H           1 FG5       0.0766
     32 H3         11.5913  -14.7476   41.6676 H           1 FG5       0.0573
     33 H4         11.3239  -13.9077   40.1342 H           1 FG5       0.0573
     34 H5         10.9943  -15.6563   40.2620 H           1 FG5       0.0573
     35 H6          0.5260  -19.3961   31.2995 H           1 FG5       0.0527
     36 H7          2.2059  -20.0498   29.6699 H           1 FG5       0.0542
     37 H8          7.2472  -13.9494   42.0103 H           1 FG5       0.0453
     38 H9          1.1184  -17.9204   33.1515 H           1 FG5       0.0546
     39 H10         4.4939  -19.2186   29.8641 H           1 FG5       0.0562
     40 H11         5.2542  -13.5834   40.7020 H           1 FG5       0.0517
     41 H12         9.4819  -14.5165   38.4708 H           1 FG5       0.0403
     42 H13         7.9531  -14.2902   36.1497 H           1 FG5       0.0155
     43 H14         3.3329  -16.4647   34.2891 H           1 FG5       0.0361
     44 H15         4.3202  -14.4239   35.3291 H           1 FG5       0.0685
     45 H16         4.9211  -12.7874   35.1090 H           1 FG5       0.0685
     46 H17         6.4252  -13.5796   33.6305 H           1 FG5       0.1706
@<TRIPOS>BOND
     1     1     3  ar
     2     4     1   1
     3     1    29  ar
     4     2     4   1
     5    22     2   1
     6     2    27   1
     7    19     5   1
     8    28     6   2
     9    28     7   2
    10     9     8  ar
    11    11     8  ar
    12    12     9  ar
    13    13    10  ar
    14    21    10  ar
    15    24    11  ar
    16    26    12  ar
    17    27    13  ar
    18    14    21  ar
    19    25    14  ar
    20    22    15   2
    21    15    25   1
    22    23    16   2
    23    16    24   1
    24    18    17   1
    25    17    22   1
    26    28    18  am
    27    21    19   1
    28    23    20   1
    29    20    26   1
    30    23    28   1
    31    24    26  ar
    32    25    27  ar
    33     4    30   1
    34     4    31   1
    35     5    32   1
    36     5    33   1
    37     5    34   1
    38     8    35   1
    39     9    36   1
    40    10    37   1
    41    11    38   1
    42    12    39   1
    43    13    40   1
    44    14    41   1
    45    15    42   1
    46    16    43   1
    47    17    44   1
    48    17    45   1
    49    18    46   1
@<TRIPOS>SUBSTRUCTURE
     1  FG5      1

