@<TRIPOS>MOLECULE
3ivg_ligand_091
    46    49
SMALL
GAST_HUCK
****
This file was generated by PARSER (from files_GN.cpp)

@<TRIPOS>ATOM
      1 C           2.5685  -14.0593   38.5769 C.2         1 FG5       0.0635
      2 N           1.6530  -12.8837   36.6955 N.pl3       1 FG5      -0.2501
      3 O           3.5131  -13.1526   38.9112 O.co2       1 FG5      -0.5663
      4 CA          1.3369  -13.6205   37.8923 C.3         1 FG5       0.1031
      5 CAA         1.5415   -6.9487   34.5426 C.3         1 FG5       0.0567
      6 OAC         4.5556  -17.5002   35.8273 O.2         1 FG5      -0.1460
      7 OAD         5.3710  -16.4978   33.5981 O.2         1 FG5      -0.1460
      8 CAF        -0.2675  -20.2077   31.6566 C.ar        1 FG5      -0.0767
      9 CAG         0.3490  -19.6886   30.4952 C.ar        1 FG5      -0.0734
     10 CAH         1.7003   -9.1515   37.1415 C.ar        1 FG5      -0.0489
     11 CAI         0.1985  -19.8469   32.9365 C.ar        1 FG5      -0.0712
     12 CAJ         1.4340  -18.7942   30.6008 C.ar        1 FG5      -0.0310
     13 CAK         1.4940  -10.4911   37.5319 C.ar        1 FG5      -0.0524
     14 CAL         2.3803   -9.8684   34.9061 C.ar        1 FG5      -0.0541
     15 CAM         2.3471  -12.3794   34.6247 C.2         1 FG5      -0.0688
     16 CAN         1.9640  -18.4345   34.1167 C.2         1 FG5      -0.0189
     17 CAO         2.1820  -14.8378   35.1022 C.3         1 FG5       0.0846
     18 NAQ         3.5598  -15.1533   34.9358 N.am        1 FG5      -0.2288
     19 OAR         2.4064   -7.5233   35.5310 O.3         1 FG5      -0.3308
     20 OAS         2.9058  -17.6195   32.2372 O.3         1 FG5      -0.2287
     21 CAU         2.1412   -8.8347   35.8350 C.ar        1 FG5       0.0691
     22 CAV         2.0360  -13.4219   35.4960 C.2         1 FG5       0.0618
     23 CAW         2.9594  -17.6140   33.5946 C.2         1 FG5       0.2522
     24 CAX         1.2832  -18.9583   33.0253 C.ar        1 FG5      -0.0094
     25 CAY         2.1587  -11.1943   35.3091 C.ar        1 FG5      -0.0477
     26 CAZ         1.8874  -18.4393   31.8813 C.ar        1 FG5       0.1269
     27 CBA         1.7281  -11.5279   36.5961 C.ar        1 FG5       0.0540
     28 SBC         4.0952  -16.6944   34.5330 S.o2        1 FG5       0.1039
     29 OXT         2.8417  -15.3698   38.7522 O.co2       1 FG5      -0.5663
     30 H1          0.7644  -13.0067   38.5885 H           1 FG5       0.0766
     31 H2          0.7041  -14.4783   37.6580 H           1 FG5       0.0766
     32 H3          1.7018   -5.8731   34.5431 H           1 FG5       0.0573
     33 H4          0.4916   -7.1296   34.7662 H           1 FG5       0.0573
     34 H5          1.7707   -7.3423   33.5527 H           1 FG5       0.0573
     35 H6         -1.0592  -20.8522   31.5680 H           1 FG5       0.0527
     36 H7          0.0021  -19.9623   29.5732 H           1 FG5       0.0542
     37 H8          1.5554   -8.4004   37.8221 H           1 FG5       0.0453
     38 H9         -0.2352  -20.2294   33.7798 H           1 FG5       0.0546
     39 H10         1.8841  -18.4138   29.7666 H           1 FG5       0.0562
     40 H11         1.1940  -10.7057   38.4851 H           1 FG5       0.0517
     41 H12         2.7309   -9.6625   33.9696 H           1 FG5       0.0403
     42 H13         2.6922  -12.4622   33.6676 H           1 FG5       0.0155
     43 H14         1.7719  -18.6082   35.1052 H           1 FG5       0.0361
     44 H15         1.7630  -15.5073   35.8509 H           1 FG5       0.0685
     45 H16         1.6492  -14.9894   34.1616 H           1 FG5       0.0685
     46 H17         4.1882  -14.4206   34.8249 H           1 FG5       0.1706
@<TRIPOS>BOND
     1     1     3  ar
     2     4     1   1
     3     1    29  ar
     4     2     4   1
     5    22     2   1
     6     2    27   1
     7    19     5   1
     8    28     6   2
     9    28     7   2
    10     9     8  ar
    11    11     8  ar
    12    12     9  ar
    13    13    10  ar
    14    21    10  ar
    15    24    11  ar
    16    26    12  ar
    17    27    13  ar
    18    14    21  ar
    19    25    14  ar
    20    22    15   2
    21    15    25   1
    22    23    16   2
    23    16    24   1
    24    18    17   1
    25    17    22   1
    26    28    18  am
    27    21    19   1
    28    23    20   1
    29    20    26   1
    30    23    28   1
    31    24    26  ar
    32    25    27  ar
    33     4    30   1
    34     4    31   1
    35     5    32   1
    36     5    33   1
    37     5    34   1
    38     8    35   1
    39     9    36   1
    40    10    37   1
    41    11    38   1
    42    12    39   1
    43    13    40   1
    44    14    41   1
    45    15    42   1
    46    16    43   1
    47    17    44   1
    48    17    45   1
    49    18    46   1
@<TRIPOS>SUBSTRUCTURE
     1  FG5      1

