@<TRIPOS>MOLECULE
3ivg_ligand_052
    46    49
SMALL
GAST_HUCK
****
This file was generated by PARSER (from files_GN.cpp)

@<TRIPOS>ATOM
      1 C           2.0189  -14.9635   37.4544 C.2         1 FG5       0.0635
      2 N           2.4322  -12.5994   37.6493 N.pl3       1 FG5      -0.2501
      3 O           0.9984  -15.6767   36.9279 O.co2       1 FG5      -0.5663
      4 CA          2.5251  -13.7492   36.7854 C.3         1 FG5       0.1031
      5 CAA        -1.8782   -8.1613   38.6376 C.3         1 FG5       0.0567
      6 OAC         6.0578  -15.8567   39.8442 O.2         1 FG5      -0.1460
      7 OAD         6.2844  -13.7361   41.2108 O.2         1 FG5      -0.1460
      8 CAF        12.1846  -13.9797   37.4889 C.ar        1 FG5      -0.0767
      9 CAG        11.6232  -12.9686   36.6733 C.ar        1 FG5      -0.0734
     10 CAH        -1.0666  -11.2882   37.9844 C.ar        1 FG5      -0.0489
     11 CAI        11.3852  -14.6713   38.4233 C.ar        1 FG5      -0.0712
     12 CAJ        10.2540  -12.6481   36.7749 C.ar        1 FG5      -0.0310
     13 CAK        -0.0501  -12.1488   37.5207 C.ar        1 FG5      -0.0524
     14 CAL         0.5692  -10.0254   39.2905 C.ar        1 FG5      -0.0541
     15 CAM         2.9288  -10.9219   39.0424 C.2         1 FG5      -0.0688
     16 CAN         9.0159  -14.8040   39.3371 C.2         1 FG5      -0.0189
     17 CAO         4.8874  -12.3647   38.3649 C.3         1 FG5       0.0846
     18 NAQ         5.0070  -13.6929   38.8499 N.am        1 FG5      -0.2288
     19 OAR        -1.7662   -9.4176   39.3311 O.3         1 FG5      -0.3308
     20 OAS         8.1535  -13.2101   37.9974 O.3         1 FG5      -0.2287
     21 CAU        -0.7606  -10.2180   38.8590 C.ar        1 FG5       0.0691
     22 CAV         3.4530  -11.9933   38.3216 C.2         1 FG5       0.0618
     23 CAW         7.8697  -14.0975   38.9850 C.2         1 FG5       0.2522
     24 CAX        10.0279  -14.3292   38.5213 C.ar        1 FG5      -0.0094
     25 CAY         1.5685  -10.8885   38.8077 C.ar        1 FG5      -0.0477
     26 CAZ         9.4675  -13.3413   37.7093 C.ar        1 FG5       0.1269
     27 CBA         1.2824  -11.9396   37.9379 C.ar        1 FG5       0.0540
     28 SBC         6.3151  -14.2905   39.7228 S.o2        1 FG5       0.1039
     29 OXT         2.5671  -15.3981   38.6107 O.co2       1 FG5      -0.5663
     30 H1          1.9574  -13.5627   35.8692 H           1 FG5       0.0766
     31 H2          3.5575  -13.9343   36.4772 H           1 FG5       0.0766
     32 H3         -2.7058   -7.6042   39.0758 H           1 FG5       0.0573
     33 H4         -2.0913   -8.3106   37.5767 H           1 FG5       0.0573
     34 H5         -0.9710   -7.5627   38.7454 H           1 FG5       0.0573
     35 H6         13.1776  -14.2087   37.4008 H           1 FG5       0.0527
     36 H7         12.2142  -12.4709   36.0019 H           1 FG5       0.0542
     37 H8         -2.0334  -11.4417   37.6909 H           1 FG5       0.0453
     38 H9         11.7850  -15.3987   39.0192 H           1 FG5       0.0546
     39 H10         9.8403  -11.9223   36.1864 H           1 FG5       0.0562
     40 H11        -0.2772  -12.9191   36.8929 H           1 FG5       0.0517
     41 H12         0.8045   -9.2707   39.9386 H           1 FG5       0.0403
     42 H13         3.4551  -10.2803   39.6299 H           1 FG5       0.0155
     43 H14         9.0920  -15.5287   40.0535 H           1 FG5       0.0361
     44 H15         5.3093  -12.2845   37.3573 H           1 FG5       0.0685
     45 H16         5.4453  -11.6813   39.0164 H           1 FG5       0.0685
     46 H17         4.4276  -14.3599   38.4549 H           1 FG5       0.1706
@<TRIPOS>BOND
     1     1     3  ar
     2     4     1   1
     3     1    29  ar
     4     2     4   1
     5    22     2   1
     6     2    27   1
     7    19     5   1
     8    28     6   2
     9    28     7   2
    10     9     8  ar
    11    11     8  ar
    12    12     9  ar
    13    13    10  ar
    14    21    10  ar
    15    24    11  ar
    16    26    12  ar
    17    27    13  ar
    18    14    21  ar
    19    25    14  ar
    20    22    15   2
    21    15    25   1
    22    23    16   2
    23    16    24   1
    24    18    17   1
    25    17    22   1
    26    28    18  am
    27    21    19   1
    28    23    20   1
    29    20    26   1
    30    23    28   1
    31    24    26  ar
    32    25    27  ar
    33     4    30   1
    34     4    31   1
    35     5    32   1
    36     5    33   1
    37     5    34   1
    38     8    35   1
    39     9    36   1
    40    10    37   1
    41    11    38   1
    42    12    39   1
    43    13    40   1
    44    14    41   1
    45    15    42   1
    46    16    43   1
    47    17    44   1
    48    17    45   1
    49    18    46   1
@<TRIPOS>SUBSTRUCTURE
     1  FG5      1

