@<TRIPOS>MOLECULE
3ivg_ligand_021
    46    49
SMALL
GAST_HUCK
****
This file was generated by PARSER (from files_GN.cpp)

@<TRIPOS>ATOM
      1 C           8.1876  -14.2564   41.6068 C.2         1 FG5       0.0635
      2 N           7.4793  -14.0444   39.3626 N.pl3       1 FG5      -0.2501
      3 O           7.3966  -13.7499   42.5789 O.co2       1 FG5      -0.5663
      4 CA          7.5820  -14.9591   40.4670 C.3         1 FG5       0.1031
      5 CAA        12.2366  -11.9667   35.6750 C.3         1 FG5       0.0567
      6 OAC         2.9174  -15.7994   37.2546 O.2         1 FG5      -0.1460
      7 OAD         5.3875  -16.1243   37.7440 O.2         1 FG5      -0.1460
      8 CAF         5.1990  -11.1122   32.6279 C.ar        1 FG5      -0.0767
      9 CAG         6.4287  -11.8052   32.5590 C.ar        1 FG5      -0.0734
     10 CAH        10.6166  -13.8575   37.3398 C.ar        1 FG5      -0.0489
     11 CAI         4.2376  -11.4539   33.6026 C.ar        1 FG5      -0.0712
     12 CAJ         6.7034  -12.8630   33.4505 C.ar        1 FG5      -0.0310
     13 CAK         9.7888  -14.2848   38.3944 C.ar        1 FG5      -0.0524
     14 CAL         8.8394  -12.4128   36.4857 C.ar        1 FG5      -0.0541
     15 CAM         6.7194  -12.5485   37.8822 C.2         1 FG5      -0.0688
     16 CAN         3.8101  -13.0662   35.5382 C.2         1 FG5      -0.0189
     17 CAO         5.0306  -13.3265   39.5916 C.3         1 FG5       0.0846
     18 NAQ         4.0429  -14.0588   38.8631 N.am        1 FG5      -0.2288
     19 OAR        10.9410  -12.4978   35.3326 O.3         1 FG5      -0.3308
     20 OAS         5.7669  -14.1612   35.3636 O.3         1 FG5      -0.2287
     21 CAU        10.1613  -12.9064   36.3887 C.ar        1 FG5       0.0691
     22 CAV         6.3921  -13.3077   39.0063 C.2         1 FG5       0.0618
     23 CAW         4.6045  -14.0871   36.0582 C.2         1 FG5       0.2522
     24 CAX         4.5240  -12.5104   34.4858 C.ar        1 FG5      -0.0094
     25 CAY         8.0273  -12.8521   37.5474 C.ar        1 FG5      -0.0477
     26 CAZ         5.7301  -13.2099   34.4029 C.ar        1 FG5       0.1269
     27 CBA         8.4797  -13.7774   38.4872 C.ar        1 FG5       0.0540
     28 SBC         4.2783  -15.0128   37.4881 S.o2        1 FG5       0.1039
     29 OXT         9.5138  -14.3799   41.8378 O.co2       1 FG5      -0.5663
     30 H1          6.6097  -15.3647   40.7556 H           1 FG5       0.0766
     31 H2          8.1978  -15.8221   40.2036 H           1 FG5       0.0766
     32 H3         12.7112  -11.5887   34.7713 H           1 FG5       0.0573
     33 H4         12.8832  -12.7431   36.0900 H           1 FG5       0.0573
     34 H5         12.1440  -11.1473   36.3913 H           1 FG5       0.0573
     35 H6          5.0051  -10.3531   31.9715 H           1 FG5       0.0527
     36 H7          7.1233  -11.5413   31.8577 H           1 FG5       0.0542
     37 H8         11.5577  -14.2472   37.2825 H           1 FG5       0.0453
     38 H9          3.3480  -10.9519   33.6603 H           1 FG5       0.0546
     39 H10         7.5900  -13.3685   33.4087 H           1 FG5       0.0562
     40 H11        10.1369  -14.9645   39.0722 H           1 FG5       0.0517
     41 H12         8.4795  -11.7467   35.7959 H           1 FG5       0.0403
     42 H13         6.0942  -11.9324   37.3610 H           1 FG5       0.0155
     43 H14         2.8941  -12.7643   35.8807 H           1 FG5       0.0361
     44 H15         5.0617  -13.7290   40.6041 H           1 FG5       0.0685
     45 H16         4.6801  -12.2974   39.6821 H           1 FG5       0.0685
     46 H17         3.1300  -13.9689   39.1720 H           1 FG5       0.1706
@<TRIPOS>BOND
     1     1     3  ar
     2     4     1   1
     3     1    29  ar
     4     2     4   1
     5    22     2   1
     6     2    27   1
     7    19     5   1
     8    28     6   2
     9    28     7   2
    10     9     8  ar
    11    11     8  ar
    12    12     9  ar
    13    13    10  ar
    14    21    10  ar
    15    24    11  ar
    16    26    12  ar
    17    27    13  ar
    18    14    21  ar
    19    25    14  ar
    20    22    15   2
    21    15    25   1
    22    23    16   2
    23    16    24   1
    24    18    17   1
    25    17    22   1
    26    28    18  am
    27    21    19   1
    28    23    20   1
    29    20    26   1
    30    23    28   1
    31    24    26  ar
    32    25    27  ar
    33     4    30   1
    34     4    31   1
    35     5    32   1
    36     5    33   1
    37     5    34   1
    38     8    35   1
    39     9    36   1
    40    10    37   1
    41    11    38   1
    42    12    39   1
    43    13    40   1
    44    14    41   1
    45    15    42   1
    46    16    43   1
    47    17    44   1
    48    17    45   1
    49    18    46   1
@<TRIPOS>SUBSTRUCTURE
     1  FG5      1

