@<TRIPOS>MOLECULE
3ivg_ligand_005
    46    49
SMALL
GAST_HUCK
****
This file was generated by PARSER (from files_GN.cpp)

@<TRIPOS>ATOM
      1 C           3.4379  -14.0791   38.5396 C.2         1 FG5       0.0635
      2 N           2.2314  -12.3478   37.2649 N.pl3       1 FG5      -0.2501
      3 O           4.3708  -14.0214   39.5200 O.co2       1 FG5      -0.5663
      4 CA          3.4536  -13.1039   37.4329 C.3         1 FG5       0.1031
      5 CAA        -0.3458   -7.9980   41.0794 C.3         1 FG5       0.0567
      6 OAC         3.9793  -11.5758   32.8741 O.2         1 FG5      -0.1460
      7 OAD         2.7304   -9.4363   33.5307 O.2         1 FG5      -0.1460
      8 CAF         0.4867  -10.2474   26.9504 C.ar        1 FG5      -0.0767
      9 CAG         1.8627  -10.0656   26.6950 C.ar        1 FG5      -0.0734
     10 CAH         1.1059  -10.6858   40.4443 C.ar        1 FG5      -0.0489
     11 CAI         0.0278  -10.4742   28.2645 C.ar        1 FG5      -0.0712
     12 CAJ         2.7983  -10.1273   27.7502 C.ar        1 FG5      -0.0310
     13 CAK         1.9406  -11.4924   39.6314 C.ar        1 FG5      -0.0524
     14 CAL        -0.3392  -10.2003   38.5268 C.ar        1 FG5      -0.0541
     15 CAM         0.4180  -11.3457   36.4055 C.2         1 FG5      -0.0688
     16 CAN         0.8366  -10.7330   30.6753 C.2         1 FG5      -0.0189
     17 CAO         1.7443  -12.7263   34.7640 C.3         1 FG5       0.0846
     18 NAQ         1.4302  -11.8160   33.7100 N.am        1 FG5      -0.2288
     19 OAR        -0.8635   -9.2741   40.6746 O.3         1 FG5      -0.3308
     20 OAS         3.0206  -10.4877   30.2103 O.3         1 FG5      -0.2287
     21 CAU        -0.0209  -10.0232   39.8983 C.ar        1 FG5       0.0691
     22 CAV         1.5158  -12.1533   36.1160 C.2         1 FG5       0.0618
     23 CAW         2.1242  -10.6980   31.2073 C.2         1 FG5       0.2522
     24 CAX         0.9675  -10.5296   29.3104 C.ar        1 FG5      -0.0094
     25 CAY         0.4989  -11.0086   37.7410 C.ar        1 FG5      -0.0477
     26 CAZ         2.3303  -10.3694   29.0533 C.ar        1 FG5       0.1269
     27 CBA         1.6260  -11.6460   38.2634 C.ar        1 FG5       0.0540
     28 SBC         2.5528  -10.8741   32.8776 S.o2        1 FG5       0.1039
     29 OXT         2.5809  -15.1298   38.5528 O.co2       1 FG5      -0.5663
     30 H1          3.7070  -13.6866   36.5454 H           1 FG5       0.0766
     31 H2          4.2726  -12.3914   37.5916 H           1 FG5       0.0766
     32 H3         -1.1387   -7.4801   41.6172 H           1 FG5       0.0573
     33 H4         -0.0500   -7.3838   40.2240 H           1 FG5       0.0573
     34 H5          0.5029   -8.1163   41.7561 H           1 FG5       0.0573
     35 H6         -0.1825  -10.2195   26.1778 H           1 FG5       0.0527
     36 H7          2.1861   -9.8946   25.7396 H           1 FG5       0.0542
     37 H8          1.3221  -10.5924   41.4370 H           1 FG5       0.0453
     38 H9         -0.9676  -10.6069   28.4458 H           1 FG5       0.0546
     39 H10         3.7991  -10.0033   27.5769 H           1 FG5       0.0562
     40 H11         2.7522  -11.9673   40.0398 H           1 FG5       0.0517
     41 H12        -1.1674   -9.7545   38.1272 H           1 FG5       0.0403
     42 H13        -0.3069  -11.0380   35.7555 H           1 FG5       0.0155
     43 H14        -0.0348  -10.8719   31.1878 H           1 FG5       0.0361
     44 H15         2.7715  -13.0848   34.6423 H           1 FG5       0.0685
     45 H16         1.0785  -13.5833   34.6556 H           1 FG5       0.0685
     46 H17         0.4859  -11.5921   33.5825 H           1 FG5       0.1706
@<TRIPOS>BOND
     1     1     3  ar
     2     4     1   1
     3     1    29  ar
     4     2     4   1
     5    22     2   1
     6     2    27   1
     7    19     5   1
     8    28     6   2
     9    28     7   2
    10     9     8  ar
    11    11     8  ar
    12    12     9  ar
    13    13    10  ar
    14    21    10  ar
    15    24    11  ar
    16    26    12  ar
    17    27    13  ar
    18    14    21  ar
    19    25    14  ar
    20    22    15   2
    21    15    25   1
    22    23    16   2
    23    16    24   1
    24    18    17   1
    25    17    22   1
    26    28    18  am
    27    21    19   1
    28    23    20   1
    29    20    26   1
    30    23    28   1
    31    24    26  ar
    32    25    27  ar
    33     4    30   1
    34     4    31   1
    35     5    32   1
    36     5    33   1
    37     5    34   1
    38     8    35   1
    39     9    36   1
    40    10    37   1
    41    11    38   1
    42    12    39   1
    43    13    40   1
    44    14    41   1
    45    15    42   1
    46    16    43   1
    47    17    44   1
    48    17    45   1
    49    18    46   1
@<TRIPOS>SUBSTRUCTURE
     1  FG5      1

