@<TRIPOS>MOLECULE
3ivg_ligand_083
    46    49
SMALL
GAST_HUCK
****
This file was generated by PARSER (from files_GN.cpp)

@<TRIPOS>ATOM
      1 C           6.4926  -14.3480   40.3135 C.2         1 FG5       0.0635
      2 N           6.1887  -12.9741   38.3207 N.pl3       1 FG5      -0.2501
      3 O           6.1958  -14.1938   41.6245 O.co2       1 FG5      -0.5663
      4 CA          6.9740  -13.2065   39.5104 C.3         1 FG5       0.1031
      5 CAA         7.0355  -11.3037   32.2999 C.3         1 FG5       0.0567
      6 OAC         0.2246  -11.2136   39.1456 O.2         1 FG5      -0.1460
      7 OAD         0.7678  -13.2452   40.5623 O.2         1 FG5      -0.1460
      8 CAF         0.1061  -15.7329   33.9328 C.ar        1 FG5      -0.0767
      9 CAG        -0.0761  -16.7970   34.8449 C.ar        1 FG5      -0.0734
     10 CAH         8.1562  -12.8931   35.1078 C.ar        1 FG5      -0.0489
     11 CAI         0.4031  -14.4347   34.3958 C.ar        1 FG5      -0.0712
     12 CAJ         0.0490  -16.5753   36.2323 C.ar        1 FG5      -0.0310
     13 CAK         7.9670  -13.0242   36.5020 C.ar        1 FG5      -0.0524
     14 CAL         5.7586  -12.5573   34.7918 C.ar        1 FG5      -0.0541
     15 CAM         4.4575  -12.5896   36.9531 C.2         1 FG5      -0.0688
     16 CAN         0.7906  -13.0962   36.5297 C.2         1 FG5      -0.0189
     17 CAO         3.8788  -12.8145   39.4147 C.3         1 FG5       0.0846
     18 NAQ         2.7608  -11.9482   39.2484 N.am        1 FG5      -0.2288
     19 OAR         7.2716  -12.5917   32.8961 O.3         1 FG5      -0.3308
     20 OAS         0.5534  -14.8319   37.9446 O.3         1 FG5      -0.2287
     21 CAU         7.0603  -12.6478   34.2489 C.ar        1 FG5       0.0691
     22 CAV         4.8400  -12.7611   38.2837 C.2         1 FG5       0.0618
     23 CAW         0.8116  -13.5014   37.8607 C.2         1 FG5       0.2522
     24 CAX         0.5191  -14.2293   35.7813 C.ar        1 FG5      -0.0094
     25 CAY         5.5991  -12.6659   36.1826 C.ar        1 FG5      -0.0477
     26 CAZ         0.3583  -15.2819   36.6844 C.ar        1 FG5       0.1269
     27 CBA         6.6696  -12.9015   37.0475 C.ar        1 FG5       0.0540
     28 SBC         1.1659  -12.4926   39.2202 S.o2        1 FG5       0.1039
     29 OXT         6.3601  -15.5706   39.7540 O.co2       1 FG5      -0.5663
     30 H1          8.0185  -13.4092   39.2743 H           1 FG5       0.0766
     31 H2          6.9618  -12.2995   40.1175 H           1 FG5       0.0766
     32 H3          7.3171  -11.3607   31.2475 H           1 FG5       0.0573
     33 H4          7.6384  -10.5247   32.7736 H           1 FG5       0.0573
     34 H5          5.9800  -11.0290   32.3471 H           1 FG5       0.0573
     35 H6          0.0169  -15.9061   32.9315 H           1 FG5       0.0527
     36 H7         -0.2999  -17.7318   34.4981 H           1 FG5       0.0542
     37 H8          9.0971  -12.9858   34.7164 H           1 FG5       0.0453
     38 H9          0.5378  -13.6622   33.7405 H           1 FG5       0.0546
     39 H10        -0.0859  -17.3378   36.8966 H           1 FG5       0.0562
     40 H11         8.7743  -13.2093   37.0992 H           1 FG5       0.0517
     41 H12         4.9469  -12.4165   34.1874 H           1 FG5       0.0403
     42 H13         3.5144  -12.4334   36.5982 H           1 FG5       0.0155
     43 H14         0.9615  -12.1543   36.1718 H           1 FG5       0.0361
     44 H15         3.5658  -13.8534   39.5387 H           1 FG5       0.0685
     45 H16         4.3737  -12.5012   40.3337 H           1 FG5       0.0685
     46 H17         2.9274  -11.0051   39.0861 H           1 FG5       0.1706
@<TRIPOS>BOND
     1     1     3  ar
     2     4     1   1
     3     1    29  ar
     4     2     4   1
     5    22     2   1
     6     2    27   1
     7    19     5   1
     8    28     6   2
     9    28     7   2
    10     9     8  ar
    11    11     8  ar
    12    12     9  ar
    13    13    10  ar
    14    21    10  ar
    15    24    11  ar
    16    26    12  ar
    17    27    13  ar
    18    14    21  ar
    19    25    14  ar
    20    22    15   2
    21    15    25   1
    22    23    16   2
    23    16    24   1
    24    18    17   1
    25    17    22   1
    26    28    18  am
    27    21    19   1
    28    23    20   1
    29    20    26   1
    30    23    28   1
    31    24    26  ar
    32    25    27  ar
    33     4    30   1
    34     4    31   1
    35     5    32   1
    36     5    33   1
    37     5    34   1
    38     8    35   1
    39     9    36   1
    40    10    37   1
    41    11    38   1
    42    12    39   1
    43    13    40   1
    44    14    41   1
    45    15    42   1
    46    16    43   1
    47    17    44   1
    48    17    45   1
    49    18    46   1
@<TRIPOS>SUBSTRUCTURE
     1  FG5      1

