@<TRIPOS>MOLECULE
3ivg_ligand_014
    46    49
SMALL
GAST_HUCK
****
This file was generated by PARSER (from files_GN.cpp)

@<TRIPOS>ATOM
      1 C           0.7074  -13.1452   35.1337 C.2         1 FG5       0.0635
      2 N           1.7714  -11.8439   36.9214 N.pl3       1 FG5      -0.2501
      3 O           0.4816  -14.1593   36.0001 O.co2       1 FG5      -0.5663
      4 CA          1.5224  -11.9684   35.5013 C.3         1 FG5       0.1031
      5 CAA        -1.4577  -10.5654   42.2266 C.3         1 FG5       0.0567
      6 OAC         4.7216  -16.4675   36.6076 O.2         1 FG5      -0.1460
      7 OAD         3.4919  -15.5508   38.6771 O.2         1 FG5      -0.1460
      8 CAF        10.0072  -14.3983   40.6897 C.ar        1 FG5      -0.0767
      9 CAG        10.5033  -14.1662   39.3849 C.ar        1 FG5      -0.0734
     10 CAH        -1.1615  -10.4208   38.7867 C.ar        1 FG5      -0.0489
     11 CAI         8.6471  -14.7077   40.8896 C.ar        1 FG5      -0.0712
     12 CAJ         9.6444  -14.2447   38.2688 C.ar        1 FG5      -0.0310
     13 CAK        -0.4648  -10.9417   37.6744 C.ar        1 FG5      -0.0524
     14 CAL         0.8049  -10.7729   40.1989 C.ar        1 FG5      -0.0541
     15 CAM         2.7753  -11.7516   38.9284 C.2         1 FG5      -0.0688
     16 CAN         6.4585  -15.0712   39.6390 C.2         1 FG5      -0.0189
     17 CAO         4.2260  -12.5672   37.0192 C.3         1 FG5       0.0846
     18 NAQ         4.1340  -13.9249   36.6002 N.am        1 FG5      -0.2288
     19 OAR        -1.1995   -9.7262   41.0830 O.3         1 FG5      -0.3308
     20 OAS         7.2847  -14.6920   37.5826 O.3         1 FG5      -0.2287
     21 CAU        -0.5330  -10.3403   40.0548 C.ar        1 FG5       0.0691
     22 CAV         2.9437  -12.0793   37.5834 C.2         1 FG5       0.0618
     23 CAW         6.1646  -15.0039   38.2800 C.2         1 FG5       0.2522
     24 CAX         7.8063  -14.7835   39.7667 C.ar        1 FG5      -0.0094
     25 CAY         1.4803  -11.2900   39.0790 C.ar        1 FG5      -0.0477
     26 CAZ         8.2912  -14.5513   38.4788 C.ar        1 FG5       0.1269
     27 CBA         0.8699  -11.3728   37.8255 C.ar        1 FG5       0.0540
     28 SBC         4.5917  -15.2149   37.5790 S.o2        1 FG5       0.1039
     29 OXT         0.1753  -13.2274   33.8908 O.co2       1 FG5      -0.5663
     30 H1          1.0166  -11.0649   35.1500 H           1 FG5       0.0766
     31 H2          2.4578  -12.0371   34.9462 H           1 FG5       0.0766
     32 H3         -2.0964  -10.0029   42.9034 H           1 FG5       0.0573
     33 H4         -0.5335  -10.8164   42.7513 H           1 FG5       0.0573
     34 H5         -1.9826  -11.4819   41.9536 H           1 FG5       0.0573
     35 H6         10.6371  -14.3347   41.4934 H           1 FG5       0.0527
     36 H7         11.4888  -13.9315   39.2494 H           1 FG5       0.0542
     37 H8         -2.1231  -10.0846   38.6678 H           1 FG5       0.0453
     38 H9          8.2806  -14.8669   41.8311 H           1 FG5       0.0546
     39 H10         9.9966  -14.0880   37.3209 H           1 FG5       0.0562
     40 H11        -0.9253  -10.9774   36.7608 H           1 FG5       0.0517
     41 H12         1.2834  -10.6925   41.0984 H           1 FG5       0.0403
     42 H13         3.4886  -11.8040   39.6703 H           1 FG5       0.0155
     43 H14         5.8094  -15.2635   40.4014 H           1 FG5       0.0361
     44 H15         4.4881  -11.9482   36.1602 H           1 FG5       0.0685
     45 H16         5.0332  -12.4423   37.7436 H           1 FG5       0.0685
     46 H17         3.6150  -14.1262   35.8072 H           1 FG5       0.1706
@<TRIPOS>BOND
     1     1     3  ar
     2     4     1   1
     3     1    29  ar
     4     2     4   1
     5    22     2   1
     6     2    27   1
     7    19     5   1
     8    28     6   2
     9    28     7   2
    10     9     8  ar
    11    11     8  ar
    12    12     9  ar
    13    13    10  ar
    14    21    10  ar
    15    24    11  ar
    16    26    12  ar
    17    27    13  ar
    18    14    21  ar
    19    25    14  ar
    20    22    15   2
    21    15    25   1
    22    23    16   2
    23    16    24   1
    24    18    17   1
    25    17    22   1
    26    28    18  am
    27    21    19   1
    28    23    20   1
    29    20    26   1
    30    23    28   1
    31    24    26  ar
    32    25    27  ar
    33     4    30   1
    34     4    31   1
    35     5    32   1
    36     5    33   1
    37     5    34   1
    38     8    35   1
    39     9    36   1
    40    10    37   1
    41    11    38   1
    42    12    39   1
    43    13    40   1
    44    14    41   1
    45    15    42   1
    46    16    43   1
    47    17    44   1
    48    17    45   1
    49    18    46   1
@<TRIPOS>SUBSTRUCTURE
     1  FG5      1

