@<TRIPOS>MOLECULE
3ivg_ligand_039
    46    49
SMALL
GAST_HUCK
****
This file was generated by PARSER (from files_GN.cpp)

@<TRIPOS>ATOM
      1 C           5.1610  -16.4679   36.8310 C.2         1 FG5       0.0635
      2 N           4.0241  -14.3307   36.9268 N.pl3       1 FG5      -0.2501
      3 O           6.3657  -16.6760   36.2502 O.co2       1 FG5      -0.5663
      4 CA          4.1817  -15.5689   36.1998 C.3         1 FG5       0.1031
      5 CAA        -1.3875  -11.0462   37.9984 C.3         1 FG5       0.0567
      6 OAC         8.6238  -14.7052   40.1967 O.2         1 FG5      -0.1460
      7 OAD         7.8165  -12.3371   39.7620 O.2         1 FG5      -0.1460
      8 CAF        13.8056  -13.0225   35.9718 C.ar        1 FG5      -0.0767
      9 CAG        13.1264  -11.9287   35.3911 C.ar        1 FG5      -0.0734
     10 CAH         0.4601  -13.4142   37.6892 C.ar        1 FG5      -0.0489
     11 CAI        13.1614  -13.8458   36.9206 C.ar        1 FG5      -0.0712
     12 CAJ        11.7953  -11.6357   35.7621 C.ar        1 FG5      -0.0310
     13 CAK         1.5013  -14.2227   37.2059 C.ar        1 FG5      -0.0524
     14 CAL         2.0675  -11.7339   38.4267 C.ar        1 FG5      -0.0541
     15 CAM         4.4714  -12.3795   37.9393 C.2         1 FG5      -0.0688
     16 CAN        10.9537  -14.1264   38.1776 C.2         1 FG5      -0.0189
     17 CAO         6.4851  -13.5950   37.0271 C.3         1 FG5       0.0846
     18 NAQ         7.0997  -14.3042   38.1020 N.am        1 FG5      -0.2288
     19 OAR        -0.2503  -11.3554   38.8293 O.3         1 FG5      -0.3308
     20 OAS         9.9240  -12.3595   37.2421 O.3         1 FG5      -0.2287
     21 CAU         0.7263  -12.1546   38.2888 C.ar        1 FG5       0.0691
     22 CAV         5.0240  -13.4725   37.2782 C.2         1 FG5       0.0618
     23 CAW         9.7834  -13.3723   38.1340 C.2         1 FG5       0.2522
     24 CAX        11.8352  -13.5361   37.2869 C.ar        1 FG5      -0.0094
     25 CAY         3.0989  -12.5589   37.9436 C.ar        1 FG5      -0.0477
     26 CAZ        11.1701  -12.4508   36.7181 C.ar        1 FG5       0.1269
     27 CBA         2.8417  -13.7873   37.3252 C.ar        1 FG5       0.0540
     28 SBC         8.3371  -13.6506   39.0392 S.o2        1 FG5       0.1039
     29 OXT         4.9337  -16.9886   38.0581 O.co2       1 FG5      -0.5663
     30 H1          3.2537  -16.1243   36.1234 H           1 FG5       0.0766
     31 H2          4.5066  -15.3328   35.1858 H           1 FG5       0.0766
     32 H3         -1.9677  -10.2739   38.4982 H           1 FG5       0.0573
     33 H4         -2.0247  -11.9230   37.8754 H           1 FG5       0.0573
     34 H5         -1.0796  -10.6739   37.0191 H           1 FG5       0.0573
     35 H6         14.7729  -13.2204   35.7033 H           1 FG5       0.0527
     36 H7         13.6029  -11.3401   34.7030 H           1 FG5       0.0542
     37 H8         -0.5041  -13.7417   37.6084 H           1 FG5       0.0453
     38 H9         13.6463  -14.6389   37.3397 H           1 FG5       0.0546
     39 H10        11.3013  -10.8426   35.3488 H           1 FG5       0.0562
     40 H11         1.2801  -15.1214   36.7727 H           1 FG5       0.0517
     41 H12         2.2908  -10.8372   38.8685 H           1 FG5       0.0403
     42 H13         4.9700  -11.5769   38.3226 H           1 FG5       0.0155
     43 H14        11.1281  -14.9544   38.7558 H           1 FG5       0.0361
     44 H15         6.6621  -14.1485   36.1049 H           1 FG5       0.0685
     45 H16         6.9214  -12.6065   36.8977 H           1 FG5       0.0685
     46 H17         6.7983  -15.1997   38.3037 H           1 FG5       0.1706
@<TRIPOS>BOND
     1     1     3  ar
     2     4     1   1
     3     1    29  ar
     4     2     4   1
     5    22     2   1
     6     2    27   1
     7    19     5   1
     8    28     6   2
     9    28     7   2
    10     9     8  ar
    11    11     8  ar
    12    12     9  ar
    13    13    10  ar
    14    21    10  ar
    15    24    11  ar
    16    26    12  ar
    17    27    13  ar
    18    14    21  ar
    19    25    14  ar
    20    22    15   2
    21    15    25   1
    22    23    16   2
    23    16    24   1
    24    18    17   1
    25    17    22   1
    26    28    18  am
    27    21    19   1
    28    23    20   1
    29    20    26   1
    30    23    28   1
    31    24    26  ar
    32    25    27  ar
    33     4    30   1
    34     4    31   1
    35     5    32   1
    36     5    33   1
    37     5    34   1
    38     8    35   1
    39     9    36   1
    40    10    37   1
    41    11    38   1
    42    12    39   1
    43    13    40   1
    44    14    41   1
    45    15    42   1
    46    16    43   1
    47    17    44   1
    48    17    45   1
    49    18    46   1
@<TRIPOS>SUBSTRUCTURE
     1  FG5      1

