@<TRIPOS>MOLECULE
3ivg_ligand_049
    46    49
SMALL
GAST_HUCK
****
This file was generated by PARSER (from files_GN.cpp)

@<TRIPOS>ATOM
      1 C           2.9036  -14.0610   38.0584 C.2         1 FG5       0.0635
      2 N           2.5175  -12.5350   36.1740 N.pl3       1 FG5      -0.2501
      3 O           3.6411  -13.1048   38.6708 O.co2       1 FG5      -0.5663
      4 CA          2.2158  -13.8174   36.7727 C.3         1 FG5       0.1031
      5 CAA        -0.7208   -7.5727   34.1138 C.3         1 FG5       0.0567
      6 OAC         8.1168  -13.3729   33.8257 O.2         1 FG5      -0.1460
      7 OAD         6.4638  -13.6424   31.8924 O.2         1 FG5      -0.1460
      8 CAF         6.0105  -19.9233   34.8951 C.ar        1 FG5      -0.0767
      9 CAG         4.6568  -19.6631   34.5794 C.ar        1 FG5      -0.0734
     10 CAH        -0.2949  -10.0432   36.2691 C.ar        1 FG5      -0.0489
     11 CAI         6.9761  -18.8992   34.8017 C.ar        1 FG5      -0.0712
     12 CAJ         4.2533  -18.3742   34.1691 C.ar        1 FG5      -0.0310
     13 CAK         0.3390  -11.2800   36.5076 C.ar        1 FG5      -0.0524
     14 CAL         1.7332   -9.1819   35.2069 C.ar        1 FG5      -0.0541
     15 CAM         3.6088  -10.8721   35.1351 C.2         1 FG5      -0.0688
     16 CAN         7.2523  -16.4347   34.1999 C.2         1 FG5      -0.0189
     17 CAO         4.9388  -12.9939   35.4259 C.3         1 FG5       0.0846
     18 NAQ         5.4888  -12.7759   34.1332 N.am        1 FG5      -0.2288
     19 OAR        -0.2006   -7.7703   35.4400 O.3         1 FG5      -0.3308
     20 OAS         5.0867  -16.0594   33.7295 O.3         1 FG5      -0.2287
     21 CAU         0.3967   -8.9897   35.6237 C.ar        1 FG5       0.0691
     22 CAV         3.7038  -12.1882   35.5919 C.2         1 FG5       0.0618
     23 CAW         6.3135  -15.4873   33.7986 C.2         1 FG5       0.2522
     24 CAX         6.5593  -17.6214   34.3869 C.ar        1 FG5      -0.0094
     25 CAY         2.3380  -10.4255   35.4416 C.ar        1 FG5      -0.0477
     26 CAZ         5.2224  -17.3605   34.0808 C.ar        1 FG5       0.1269
     27 CBA         1.6737  -11.4736   36.0859 C.ar        1 FG5       0.0540
     28 SBC         6.6339  -13.8164   33.4639 S.o2        1 FG5       0.1039
     29 OXT         2.7295  -15.2384   38.7016 O.co2       1 FG5      -0.5663
     30 H1          1.1455  -13.9181   36.9601 H           1 FG5       0.0766
     31 H2          2.4878  -14.6117   36.0729 H           1 FG5       0.0766
     32 H3         -1.1636   -6.5770   34.0699 H           1 FG5       0.0573
     33 H4         -1.4996   -8.3035   33.8780 H           1 FG5       0.0573
     34 H5          0.0703   -7.6256   33.3601 H           1 FG5       0.0573
     35 H6          6.2900  -20.8590   35.1955 H           1 FG5       0.0527
     36 H7          3.9652  -20.4129   34.6493 H           1 FG5       0.0542
     37 H8         -1.2602   -9.9030   36.5730 H           1 FG5       0.0453
     38 H9          7.9560  -19.0806   35.0309 H           1 FG5       0.0546
     39 H10         3.2759  -18.1779   33.9408 H           1 FG5       0.0562
     40 H11        -0.1712  -12.0201   36.9894 H           1 FG5       0.0517
     41 H12         2.2532   -8.4293   34.7534 H           1 FG5       0.0403
     42 H13         4.3418  -10.3365   34.6624 H           1 FG5       0.0155
     43 H14         8.2544  -16.2882   34.3396 H           1 FG5       0.0361
     44 H15         5.6642  -12.6880   36.1840 H           1 FG5       0.0685
     45 H16         4.7338  -14.0578   35.5593 H           1 FG5       0.0685
     46 H17         5.4238  -11.8848   33.7535 H           1 FG5       0.1706
@<TRIPOS>BOND
     1     1     3  ar
     2     4     1   1
     3     1    29  ar
     4     2     4   1
     5    22     2   1
     6     2    27   1
     7    19     5   1
     8    28     6   2
     9    28     7   2
    10     9     8  ar
    11    11     8  ar
    12    12     9  ar
    13    13    10  ar
    14    21    10  ar
    15    24    11  ar
    16    26    12  ar
    17    27    13  ar
    18    14    21  ar
    19    25    14  ar
    20    22    15   2
    21    15    25   1
    22    23    16   2
    23    16    24   1
    24    18    17   1
    25    17    22   1
    26    28    18  am
    27    21    19   1
    28    23    20   1
    29    20    26   1
    30    23    28   1
    31    24    26  ar
    32    25    27  ar
    33     4    30   1
    34     4    31   1
    35     5    32   1
    36     5    33   1
    37     5    34   1
    38     8    35   1
    39     9    36   1
    40    10    37   1
    41    11    38   1
    42    12    39   1
    43    13    40   1
    44    14    41   1
    45    15    42   1
    46    16    43   1
    47    17    44   1
    48    17    45   1
    49    18    46   1
@<TRIPOS>SUBSTRUCTURE
     1  FG5      1

