@<TRIPOS>MOLECULE
3ivg_ligand_038
    46    49
SMALL
GAST_HUCK
****
This file was generated by PARSER (from files_GN.cpp)

@<TRIPOS>ATOM
      1 C           2.7528  -14.2338   37.9628 C.2         1 FG5       0.0635
      2 N           5.0238  -13.5489   37.4620 N.pl3       1 FG5      -0.2501
      3 O           2.9846  -15.2818   38.7851 O.co2       1 FG5      -0.5663
      4 CA          3.7097  -13.1167   37.8771 C.3         1 FG5       0.1031
      5 CAA        10.3348  -14.5973   40.7638 C.3         1 FG5       0.0567
      6 OAC         1.5955  -16.4384   35.9755 O.2         1 FG5      -0.1460
      7 OAD         4.0338  -16.8699   36.4803 O.2         1 FG5      -0.1460
      8 CAF         3.8614  -19.4389   29.9761 C.ar        1 FG5      -0.0767
      9 CAG         2.4644  -19.6178   30.0941 C.ar        1 FG5      -0.0734
     10 CAH         7.6711  -13.1955   40.1065 C.ar        1 FG5      -0.0489
     11 CAI         4.5745  -18.7080   30.9492 C.ar        1 FG5      -0.0712
     12 CAJ         1.7639  -19.0649   31.1851 C.ar        1 FG5      -0.0310
     13 CAK         6.3639  -13.1670   39.5800 C.ar        1 FG5      -0.0524
     14 CAL         8.5385  -14.0165   37.9711 C.ar        1 FG5      -0.0541
     15 CAM         6.7453  -14.2444   36.1988 C.2         1 FG5      -0.0688
     16 CAN         4.2700  -17.4274   33.1368 C.2         1 FG5      -0.0189
     17 CAO         4.5409  -14.0199   34.9886 C.3         1 FG5       0.0846
     18 NAQ         3.2699  -14.6223   35.1862 N.am        1 FG5      -0.2288
     19 OAR        10.0443  -13.5926   39.7784 O.3         1 FG5      -0.3308
     20 OAS         2.0452  -17.7314   33.2786 O.3         1 FG5      -0.2287
     21 CAU         8.7607  -13.6272   39.3110 C.ar        1 FG5       0.0691
     22 CAV         5.3776  -13.9637   36.2108 C.2         1 FG5       0.0618
     23 CAW         3.1199  -17.1706   33.8857 C.2         1 FG5       0.2522
     24 CAX         3.8640  -18.1660   32.0385 C.ar        1 FG5      -0.0094
     25 CAY         7.2290  -13.9655   37.4643 C.ar        1 FG5      -0.0477
     26 CAZ         2.4835  -18.3404   32.1527 C.ar        1 FG5       0.1269
     27 CBA         6.1429  -13.5406   38.2363 C.ar        1 FG5       0.0540
     28 SBC         3.0626  -16.2827   35.3703 S.o2        1 FG5       0.1039
     29 OXT         1.5539  -14.1560   37.3398 O.co2       1 FG5      -0.5663
     30 H1          3.7251  -12.6428   38.8590 H           1 FG5       0.0766
     31 H2          3.3412  -12.3674   37.1726 H           1 FG5       0.0766
     32 H3         11.3938  -14.5327   41.0118 H           1 FG5       0.0573
     33 H4         10.1331  -15.6006   40.3809 H           1 FG5       0.0573
     34 H5          9.7595  -14.4304   41.6787 H           1 FG5       0.0573
     35 H6          4.3623  -19.8421   29.1800 H           1 FG5       0.0527
     36 H7          1.9599  -20.1505   29.3846 H           1 FG5       0.0542
     37 H8          7.8332  -12.8823   41.0642 H           1 FG5       0.0453
     38 H9          5.5848  -18.5784   30.8708 H           1 FG5       0.0546
     39 H10         0.7552  -19.1904   31.2779 H           1 FG5       0.0562
     40 H11         5.5894  -12.8603   40.1703 H           1 FG5       0.0517
     41 H12         9.3197  -14.2950   37.3690 H           1 FG5       0.0403
     42 H13         7.3067  -14.5505   35.3992 H           1 FG5       0.0155
     43 H14         5.2195  -17.1306   33.3592 H           1 FG5       0.0361
     44 H15         4.3721  -12.9946   34.6522 H           1 FG5       0.0685
     45 H16         5.0627  -14.5626   34.1955 H           1 FG5       0.0685
     46 H17         2.5032  -14.0444   35.3507 H           1 FG5       0.1706
@<TRIPOS>BOND
     1     1     3  ar
     2     4     1   1
     3     1    29  ar
     4     2     4   1
     5    22     2   1
     6     2    27   1
     7    19     5   1
     8    28     6   2
     9    28     7   2
    10     9     8  ar
    11    11     8  ar
    12    12     9  ar
    13    13    10  ar
    14    21    10  ar
    15    24    11  ar
    16    26    12  ar
    17    27    13  ar
    18    14    21  ar
    19    25    14  ar
    20    22    15   2
    21    15    25   1
    22    23    16   2
    23    16    24   1
    24    18    17   1
    25    17    22   1
    26    28    18  am
    27    21    19   1
    28    23    20   1
    29    20    26   1
    30    23    28   1
    31    24    26  ar
    32    25    27  ar
    33     4    30   1
    34     4    31   1
    35     5    32   1
    36     5    33   1
    37     5    34   1
    38     8    35   1
    39     9    36   1
    40    10    37   1
    41    11    38   1
    42    12    39   1
    43    13    40   1
    44    14    41   1
    45    15    42   1
    46    16    43   1
    47    17    44   1
    48    17    45   1
    49    18    46   1
@<TRIPOS>SUBSTRUCTURE
     1  FG5      1

