@<TRIPOS>MOLECULE
3ivg_ligand_072
    46    49
SMALL
GAST_HUCK
****
This file was generated by PARSER (from files_GN.cpp)

@<TRIPOS>ATOM
      1 C           2.6932  -15.1348   37.1597 C.2         1 FG5       0.0635
      2 N           2.9679  -12.7647   37.4411 N.pl3       1 FG5      -0.2501
      3 O           2.2778  -16.1421   36.3608 O.co2       1 FG5      -0.5663
      4 CA          3.2012  -13.8855   36.5673 C.3         1 FG5       0.1031
      5 CAA        -2.1809   -9.1896   38.0728 C.3         1 FG5       0.0567
      6 OAC         6.9452  -15.4408   36.9312 O.2         1 FG5      -0.1460
      7 OAD         7.9246  -14.8996   39.2321 O.2         1 FG5      -0.1460
      8 CAF         9.1069   -9.2500   35.0370 C.ar        1 FG5      -0.0767
      9 CAG        10.1277   -9.3415   36.0104 C.ar        1 FG5      -0.0734
     10 CAH        -0.0303  -10.7330   36.4333 C.ar        1 FG5      -0.0489
     11 CAI         8.0535  -10.1886   35.0216 C.ar        1 FG5      -0.0712
     12 CAJ        10.1033  -10.3648   36.9762 C.ar        1 FG5      -0.0310
     13 CAK         0.9155  -11.7752   36.3319 C.ar        1 FG5      -0.0524
     14 CAL         1.0500   -9.9206   38.4674 C.ar        1 FG5      -0.0541
     15 CAM         3.0662  -11.3086   39.1287 C.2         1 FG5      -0.0688
     16 CAN         7.1595  -12.2495   36.2422 C.2         1 FG5      -0.0189
     17 CAO         4.8455  -13.0409   39.2478 C.3         1 FG5       0.0846
     18 NAQ         5.3819  -14.2071   38.6368 N.am        1 FG5      -0.2288
     19 OAR        -0.8839   -8.7868   37.5949 O.3         1 FG5      -0.3308
     20 OAS         8.8056  -12.3441   37.7684 O.3         1 FG5      -0.2287
     21 CAU         0.0192   -9.8135   37.5079 C.ar        1 FG5       0.0691
     22 CAV         3.6661  -12.4354   38.5681 C.2         1 FG5       0.0618
     23 CAW         7.6576  -12.9369   37.3490 C.2         1 FG5       0.2522
     24 CAX         8.0363  -11.2076   35.9907 C.ar        1 FG5      -0.0094
     25 CAY         1.9862  -10.9596   38.3411 C.ar        1 FG5      -0.0477
     26 CAZ         9.0466  -11.2935   36.9570 C.ar        1 FG5       0.1269
     27 CBA         1.9418  -11.8822   37.2958 C.ar        1 FG5       0.0540
     28 SBC         6.9721  -14.3456   38.0843 S.o2        1 FG5       0.1039
     29 OXT         2.8418  -15.3918   38.4800 O.co2       1 FG5      -0.5663
     30 H1          2.7128  -13.7368   35.6007 H           1 FG5       0.0766
     31 H2          4.2576  -13.9886   36.3265 H           1 FG5       0.0766
     32 H3         -2.8114   -8.3029   38.1342 H           1 FG5       0.0573
     33 H4         -2.1187   -9.6342   39.0700 H           1 FG5       0.0573
     34 H5         -2.6572   -9.8964   37.3882 H           1 FG5       0.0573
     35 H6          9.1323   -8.5054   34.3401 H           1 FG5       0.0527
     36 H7         10.8914   -8.6605   36.0104 H           1 FG5       0.0542
     37 H8         -0.7603  -10.6408   35.7197 H           1 FG5       0.0453
     38 H9          7.3138  -10.1302   34.3179 H           1 FG5       0.0546
     39 H10        10.8386  -10.4392   37.6845 H           1 FG5       0.0562
     40 H11         0.8452  -12.4327   35.5551 H           1 FG5       0.0517
     41 H12         1.1180   -9.2506   39.2391 H           1 FG5       0.0403
     42 H13         3.3614  -10.8249   39.9790 H           1 FG5       0.0155
     43 H14         6.3115  -12.4730   35.7149 H           1 FG5       0.0361
     44 H15         5.6204  -12.2729   39.3308 H           1 FG5       0.0685
     45 H16         4.5568  -13.3254   40.2621 H           1 FG5       0.0685
     46 H17         4.8020  -14.9761   38.5262 H           1 FG5       0.1706
@<TRIPOS>BOND
     1     1     3  ar
     2     4     1   1
     3     1    29  ar
     4     2     4   1
     5    22     2   1
     6     2    27   1
     7    19     5   1
     8    28     6   2
     9    28     7   2
    10     9     8  ar
    11    11     8  ar
    12    12     9  ar
    13    13    10  ar
    14    21    10  ar
    15    24    11  ar
    16    26    12  ar
    17    27    13  ar
    18    14    21  ar
    19    25    14  ar
    20    22    15   2
    21    15    25   1
    22    23    16   2
    23    16    24   1
    24    18    17   1
    25    17    22   1
    26    28    18  am
    27    21    19   1
    28    23    20   1
    29    20    26   1
    30    23    28   1
    31    24    26  ar
    32    25    27  ar
    33     4    30   1
    34     4    31   1
    35     5    32   1
    36     5    33   1
    37     5    34   1
    38     8    35   1
    39     9    36   1
    40    10    37   1
    41    11    38   1
    42    12    39   1
    43    13    40   1
    44    14    41   1
    45    15    42   1
    46    16    43   1
    47    17    44   1
    48    17    45   1
    49    18    46   1
@<TRIPOS>SUBSTRUCTURE
     1  FG5      1

