@<TRIPOS>MOLECULE
3ivg_ligand_093
    46    49
SMALL
GAST_HUCK
****
This file was generated by PARSER (from files_GN.cpp)

@<TRIPOS>ATOM
      1 C           2.1764  -14.4264   38.2543 C.2         1 FG5       0.0635
      2 N           1.7759  -12.0779   37.7903 N.pl3       1 FG5      -0.2501
      3 O           1.1367  -14.7563   37.4554 O.co2       1 FG5      -0.5663
      4 CA          2.6588  -13.0399   38.3928 C.3         1 FG5       0.1031
      5 CAA        -2.4975   -7.4992   39.1885 C.3         1 FG5       0.0567
      6 OAC         5.7070  -12.9151   36.4689 O.2         1 FG5      -0.1460
      7 OAD         5.2468  -12.3970   33.9837 O.2         1 FG5      -0.1460
      8 CAF         7.6676  -18.7115   33.3501 C.ar        1 FG5      -0.0767
      9 CAG         6.3640  -19.0184   32.8981 C.ar        1 FG5      -0.0734
     10 CAH        -0.3526  -10.2643   40.3028 C.ar        1 FG5      -0.0489
     11 CAI         7.9263  -17.4922   34.0112 C.ar        1 FG5      -0.0712
     12 CAJ         5.3035  -18.1102   33.1045 C.ar        1 FG5      -0.0310
     13 CAK         0.6338  -11.1795   39.8699 C.ar        1 FG5      -0.0524
     14 CAL        -0.8150   -9.6350   37.9959 C.ar        1 FG5      -0.0541
     15 CAM         0.6453  -10.8283   36.3215 C.2         1 FG5      -0.0688
     16 CAN         6.8017  -15.3370   34.7816 C.2         1 FG5      -0.0189
     17 CAO         2.3522  -12.2790   35.2450 C.3         1 FG5       0.0846
     18 NAQ         3.2090  -13.4007   35.4217 N.am        1 FG5      -0.2288
     19 OAR        -2.0501   -8.6573   39.9150 O.3         1 FG5      -0.3308
     20 OAS         4.7417  -15.8659   34.0519 O.3         1 FG5      -0.2287
     21 CAU        -1.0865   -9.4823   39.3812 C.ar        1 FG5       0.0691
     22 CAV         1.6431  -11.7914   36.4570 C.2         1 FG5       0.0618
     23 CAW         5.4803  -14.9119   34.6704 C.2         1 FG5       0.2522
     24 CAX         6.8609  -16.5940   34.2028 C.ar        1 FG5      -0.0094
     25 CAY         0.1819  -10.5290   37.5873 C.ar        1 FG5      -0.0477
     26 CAZ         5.5715  -16.8960   33.7602 C.ar        1 FG5       0.1269
     27 CBA         0.9049  -11.3064   38.4889 C.ar        1 FG5       0.0540
     28 SBC         4.8839  -13.3702   35.1861 S.o2        1 FG5       0.1039
     29 OXT         2.8622  -15.4212   38.8528 O.co2       1 FG5      -0.5663
     30 H1          3.6537  -12.9402   37.9658 H           1 FG5       0.0766
     31 H2          2.7789  -12.8477   39.4623 H           1 FG5       0.0766
     32 H3         -3.1736   -6.9216   39.8160 H           1 FG5       0.0573
     33 H4         -3.0377   -7.8062   38.2909 H           1 FG5       0.0573
     34 H5         -1.6546   -6.8638   38.9100 H           1 FG5       0.0573
     35 H6          8.4292  -19.3748   33.1942 H           1 FG5       0.0527
     36 H7          6.1888  -19.9018   32.4159 H           1 FG5       0.0542
     37 H8         -0.5355  -10.1760   41.3101 H           1 FG5       0.0453
     38 H9          8.8678  -17.2631   34.3386 H           1 FG5       0.0546
     39 H10         4.3595  -18.3235   32.7770 H           1 FG5       0.0562
     40 H11         1.1365  -11.7321   40.5652 H           1 FG5       0.0517
     41 H12        -1.3286   -9.1082   37.2841 H           1 FG5       0.0403
     42 H13         0.3071  -10.4038   35.4527 H           1 FG5       0.0155
     43 H14         7.5806  -14.8197   35.1926 H           1 FG5       0.0361
     44 H15         1.6035  -12.5865   34.5087 H           1 FG5       0.0685
     45 H16         2.8979  -11.4324   34.8182 H           1 FG5       0.0685
     46 H17         2.7982  -14.2553   35.6316 H           1 FG5       0.1706
@<TRIPOS>BOND
     1     1     3  ar
     2     4     1   1
     3     1    29  ar
     4     2     4   1
     5    22     2   1
     6     2    27   1
     7    19     5   1
     8    28     6   2
     9    28     7   2
    10     9     8  ar
    11    11     8  ar
    12    12     9  ar
    13    13    10  ar
    14    21    10  ar
    15    24    11  ar
    16    26    12  ar
    17    27    13  ar
    18    14    21  ar
    19    25    14  ar
    20    22    15   2
    21    15    25   1
    22    23    16   2
    23    16    24   1
    24    18    17   1
    25    17    22   1
    26    28    18  am
    27    21    19   1
    28    23    20   1
    29    20    26   1
    30    23    28   1
    31    24    26  ar
    32    25    27  ar
    33     4    30   1
    34     4    31   1
    35     5    32   1
    36     5    33   1
    37     5    34   1
    38     8    35   1
    39     9    36   1
    40    10    37   1
    41    11    38   1
    42    12    39   1
    43    13    40   1
    44    14    41   1
    45    15    42   1
    46    16    43   1
    47    17    44   1
    48    17    45   1
    49    18    46   1
@<TRIPOS>SUBSTRUCTURE
     1  FG5      1

