@<TRIPOS>MOLECULE
3ivg_ligand_094
    46    49
SMALL
GAST_HUCK
****
This file was generated by PARSER (from files_GN.cpp)

@<TRIPOS>ATOM
      1 C           5.6841  -15.8581   35.2975 C.2         1 FG5       0.0635
      2 N           5.1913  -14.0186   36.7858 N.pl3       1 FG5      -0.2501
      3 O           6.3018  -16.7591   36.0954 O.co2       1 FG5      -0.5663
      4 CA          5.7950  -14.4093   35.5359 C.3         1 FG5       0.1031
      5 CAA         6.7554  -15.3430   42.7802 C.3         1 FG5       0.0567
      6 OAC         0.0220  -15.0760   35.8383 O.2         1 FG5      -0.1460
      7 OAD         1.9747  -15.7406   37.4062 O.2         1 FG5      -0.1460
      8 CAF         2.8301  -20.9557   33.0600 C.ar        1 FG5      -0.0767
      9 CAG         1.8177  -20.5203   32.1771 C.ar        1 FG5      -0.0734
     10 CAH         7.3564  -14.6860   39.7820 C.ar        1 FG5      -0.0489
     11 CAI         3.2285  -20.1490   34.1496 C.ar        1 FG5      -0.0712
     12 CAJ         1.1827  -19.2735   32.3777 C.ar        1 FG5      -0.0310
     13 CAK         7.0156  -14.6794   38.4142 C.ar        1 FG5      -0.0524
     14 CAL         5.2209  -13.6363   40.3385 C.ar        1 FG5      -0.0541
     15 CAM         3.7758  -13.1908   38.3082 C.2         1 FG5      -0.0688
     16 CAN         2.7011  -17.9540   35.3233 C.2         1 FG5      -0.0189
     17 CAO         2.9564  -13.1062   35.9213 C.3         1 FG5       0.0846
     18 NAQ         2.4981  -14.2473   35.2023 N.am        1 FG5      -0.2288
     19 OAR         6.7991  -14.0930   42.0733 O.3         1 FG5      -0.3308
     20 OAS         1.1137  -17.2806   33.8848 O.3         1 FG5      -0.2287
     21 CAU         6.4577  -14.1726   40.7504 C.ar        1 FG5       0.0691
     22 CAV         3.9699  -13.4354   36.9501 C.2         1 FG5       0.0618
     23 CAW         1.7873  -16.9493   35.0156 C.2         1 FG5       0.2522
     24 CAX         2.5633  -18.9273   34.3491 C.ar        1 FG5      -0.0094
     25 CAY         4.8976  -13.6461   38.9710 C.ar        1 FG5      -0.0477
     26 CAZ         1.5728  -18.4862   33.4748 C.ar        1 FG5       0.1269
     27 CBA         5.7668  -14.1575   38.0081 C.ar        1 FG5       0.0540
     28 SBC         1.5610  -15.4687   35.8918 S.o2        1 FG5       0.1039
     29 OXT         4.8922  -16.2923   34.2939 O.co2       1 FG5      -0.5663
     30 H1          5.3261  -13.8829   34.7010 H           1 FG5       0.0766
     31 H2          6.8533  -14.1381   35.5149 H           1 FG5       0.0766
     32 H3          7.0080  -15.1469   43.8233 H           1 FG5       0.0573
     33 H4          7.4809  -16.0581   42.3839 H           1 FG5       0.0573
     34 H5          5.7564  -15.7855   42.7483 H           1 FG5       0.0573
     35 H6          3.2769  -21.8668   32.9134 H           1 FG5       0.0527
     36 H7          1.5416  -21.1089   31.3886 H           1 FG5       0.0542
     37 H8          8.2629  -15.0604   40.0684 H           1 FG5       0.0453
     38 H9          3.9556  -20.4634   34.7936 H           1 FG5       0.0546
     39 H10         0.4518  -18.9527   31.7410 H           1 FG5       0.0562
     40 H11         7.6750  -15.0398   37.7253 H           1 FG5       0.0517
     41 H12         4.5720  -13.2413   41.0170 H           1 FG5       0.0403
     42 H13         2.9515  -12.7676   38.7409 H           1 FG5       0.0155
     43 H14         3.3830  -17.9500   36.0813 H           1 FG5       0.0361
     44 H15         2.0917  -12.6019   36.3569 H           1 FG5       0.0685
     45 H16         3.4094  -12.4150   35.2072 H           1 FG5       0.0685
     46 H17         2.4883  -14.1891   34.2357 H           1 FG5       0.1706
@<TRIPOS>BOND
     1     1     3  ar
     2     4     1   1
     3     1    29  ar
     4     2     4   1
     5    22     2   1
     6     2    27   1
     7    19     5   1
     8    28     6   2
     9    28     7   2
    10     9     8  ar
    11    11     8  ar
    12    12     9  ar
    13    13    10  ar
    14    21    10  ar
    15    24    11  ar
    16    26    12  ar
    17    27    13  ar
    18    14    21  ar
    19    25    14  ar
    20    22    15   2
    21    15    25   1
    22    23    16   2
    23    16    24   1
    24    18    17   1
    25    17    22   1
    26    28    18  am
    27    21    19   1
    28    23    20   1
    29    20    26   1
    30    23    28   1
    31    24    26  ar
    32    25    27  ar
    33     4    30   1
    34     4    31   1
    35     5    32   1
    36     5    33   1
    37     5    34   1
    38     8    35   1
    39     9    36   1
    40    10    37   1
    41    11    38   1
    42    12    39   1
    43    13    40   1
    44    14    41   1
    45    15    42   1
    46    16    43   1
    47    17    44   1
    48    17    45   1
    49    18    46   1
@<TRIPOS>SUBSTRUCTURE
     1  FG5      1

