@<TRIPOS>MOLECULE
3ivg_ligand_016
    46    49
SMALL
GAST_HUCK
****
This file was generated by PARSER (from files_GN.cpp)

@<TRIPOS>ATOM
      1 C           2.2309  -14.0277   38.4613 C.2         1 FG5       0.0635
      2 N           0.8865  -14.2379   36.4630 N.pl3       1 FG5      -0.2501
      3 O           2.7390  -15.2528   38.7338 O.co2       1 FG5      -0.5663
      4 CA          0.8905  -13.8960   37.8651 C.3         1 FG5       0.1031
      5 CAA         0.6390  -19.3695   32.7808 C.3         1 FG5       0.0567
      6 OAC        -0.5684   -9.6043   33.9138 O.2         1 FG5      -0.1460
      7 OAD        -0.8061  -12.1154   33.1534 O.2         1 FG5      -0.1460
      8 CAF         2.1770   -9.0930   27.5992 C.ar        1 FG5      -0.0767
      9 CAG         2.4018  -10.4810   27.4535 C.ar        1 FG5      -0.0734
     10 CAH        -0.1415  -17.7828   35.7417 C.ar        1 FG5      -0.0489
     11 CAI         1.6434   -8.5775   28.8009 C.ar        1 FG5      -0.0712
     12 CAJ         2.0897  -11.3692   28.5032 C.ar        1 FG5      -0.0310
     13 CAK         0.1551  -16.6653   36.5518 C.ar        1 FG5      -0.0524
     14 CAL         0.3939  -16.4963   33.7362 C.ar        1 FG5      -0.0541
     15 CAM         1.0943  -14.1235   34.2351 C.2         1 FG5      -0.0688
     16 CAN         0.8247   -9.2771   31.1090 C.2         1 FG5      -0.0189
     17 CAO         1.4524  -11.9382   35.4933 C.3         1 FG5       0.0846
     18 NAQ         1.5268  -11.2699   34.2379 N.am        1 FG5      -0.2288
     19 OAR        -0.4068  -18.7795   33.5698 O.3         1 FG5      -0.3308
     20 OAS         1.1762  -11.4814   30.8311 O.3         1 FG5      -0.2287
     21 CAU        -0.0231  -17.7073   34.3350 C.ar        1 FG5       0.0691
     22 CAV         1.1701  -13.3956   35.4245 C.2         1 FG5       0.0618
     23 CAW         0.7311  -10.5363   31.6980 C.2         1 FG5       0.2522
     24 CAX         1.3398   -9.4771   29.8380 C.ar        1 FG5      -0.0094
     25 CAY         0.6887  -15.4018   34.5647 C.ar        1 FG5      -0.0477
     26 CAZ         1.5526  -10.8490   29.6938 C.ar        1 FG5       0.1269
     27 CBA         0.5696  -15.4558   35.9518 C.ar        1 FG5       0.0540
     28 SBC         0.1776  -10.8755   33.3059 S.o2        1 FG5       0.1039
     29 OXT         3.0849  -12.9789   38.4314 O.co2       1 FG5      -0.5663
     30 H1          0.5307  -12.8743   38.0099 H           1 FG5       0.0766
     31 H2          0.2101  -14.5388   38.4290 H           1 FG5       0.0766
     32 H3          0.2374  -20.2664   32.3092 H           1 FG5       0.0573
     33 H4          1.4923  -19.6561   33.4011 H           1 FG5       0.0573
     34 H5          0.9704  -18.6906   31.9913 H           1 FG5       0.0573
     35 H6          2.4027   -8.4560   26.8308 H           1 FG5       0.0527
     36 H7          2.7935  -10.8410   26.5798 H           1 FG5       0.0542
     37 H8         -0.4608  -18.6483   36.1780 H           1 FG5       0.0453
     38 H9          1.4789   -7.5749   28.9128 H           1 FG5       0.0546
     39 H10         2.2538  -12.3730   28.4018 H           1 FG5       0.0562
     40 H11         0.0470  -16.7339   37.5648 H           1 FG5       0.0517
     41 H12         0.4579  -16.4044   32.7218 H           1 FG5       0.0403
     42 H13         1.2583  -13.7810   33.2860 H           1 FG5       0.0155
     43 H14         0.5754   -8.3822   31.5298 H           1 FG5       0.0361
     44 H15         0.6799  -11.4554   36.0969 H           1 FG5       0.0685
     45 H16         2.4080  -11.8022   35.9990 H           1 FG5       0.0685
     46 H17         2.4055  -11.1107   33.8498 H           1 FG5       0.1706
@<TRIPOS>BOND
     1     1     3  ar
     2     4     1   1
     3     1    29  ar
     4     2     4   1
     5    22     2   1
     6     2    27   1
     7    19     5   1
     8    28     6   2
     9    28     7   2
    10     9     8  ar
    11    11     8  ar
    12    12     9  ar
    13    13    10  ar
    14    21    10  ar
    15    24    11  ar
    16    26    12  ar
    17    27    13  ar
    18    14    21  ar
    19    25    14  ar
    20    22    15   2
    21    15    25   1
    22    23    16   2
    23    16    24   1
    24    18    17   1
    25    17    22   1
    26    28    18  am
    27    21    19   1
    28    23    20   1
    29    20    26   1
    30    23    28   1
    31    24    26  ar
    32    25    27  ar
    33     4    30   1
    34     4    31   1
    35     5    32   1
    36     5    33   1
    37     5    34   1
    38     8    35   1
    39     9    36   1
    40    10    37   1
    41    11    38   1
    42    12    39   1
    43    13    40   1
    44    14    41   1
    45    15    42   1
    46    16    43   1
    47    17    44   1
    48    17    45   1
    49    18    46   1
@<TRIPOS>SUBSTRUCTURE
     1  FG5      1

