@<TRIPOS>MOLECULE
3ivg_ligand_095
    46    49
SMALL
GAST_HUCK
****
This file was generated by PARSER (from files_GN.cpp)

@<TRIPOS>ATOM
      1 C           1.3102  -14.5568   36.9372 C.2         1 FG5       0.0635
      2 N           3.0447  -13.6916   35.5508 N.pl3       1 FG5      -0.2501
      3 O           0.5174  -13.4630   36.9775 O.co2       1 FG5      -0.5663
      4 CA          2.1537  -14.8026   35.7572 C.3         1 FG5       0.1031
      5 CAA         2.8145   -9.1032   31.1737 C.3         1 FG5       0.0567
      6 OAC         5.2316  -13.7905   41.0331 O.2         1 FG5      -0.1460
      7 OAD         5.3918  -11.6099   39.7075 O.2         1 FG5      -0.1460
      8 CAF        11.5774  -15.0357   38.8577 C.ar        1 FG5      -0.0767
      9 CAG        11.5233  -14.1070   37.7949 C.ar        1 FG5      -0.0734
     10 CAH         1.6874  -11.0831   33.2132 C.ar        1 FG5      -0.0489
     11 CAI        10.4696  -15.2110   39.7110 C.ar        1 FG5      -0.0712
     12 CAJ        10.3476  -13.3635   37.5582 C.ar        1 FG5      -0.0310
     13 CAK         1.6806  -12.2892   33.9416 C.ar        1 FG5      -0.0524
     14 CAL         3.8791  -10.5206   34.1328 C.ar        1 FG5      -0.0541
     15 CAM         4.7448  -12.2548   35.7708 C.2         1 FG5      -0.0688
     16 CAN         8.0508  -14.4703   40.0582 C.2         1 FG5      -0.0189
     17 CAO         4.8953  -14.3338   37.2070 C.3         1 FG5       0.0846
     18 NAQ         4.5408  -13.8994   38.5144 N.am        1 FG5      -0.2288
     19 OAR         2.8219   -9.0133   32.6113 O.3         1 FG5      -0.3308
     20 OAS         8.0063  -13.0177   38.3425 O.3         1 FG5      -0.2287
     21 CAU         2.8001  -10.2100   33.2771 C.ar        1 FG5       0.0691
     22 CAV         4.2311  -13.4827   36.1901 C.2         1 FG5       0.0618
     23 CAW         7.2743  -13.5563   39.3486 C.2         1 FG5       0.2522
     24 CAX         9.2990  -14.4772   39.4548 C.ar        1 FG5      -0.0094
     25 CAY         3.8518  -11.7266   34.8548 C.ar        1 FG5      -0.0477
     26 CAZ         9.2392  -13.5698   38.3967 C.ar        1 FG5       0.1269
     27 CBA         2.7875  -12.6228   34.7528 C.ar        1 FG5       0.0540
     28 SBC         5.6029  -13.1828   39.6130 S.o2        1 FG5       0.1039
     29 OXT         1.4179  -15.3276   38.0434 O.co2       1 FG5      -0.5663
     30 H1          1.5035  -14.9516   34.8942 H           1 FG5       0.0766
     31 H2          2.7107  -15.7334   35.8803 H           1 FG5       0.0766
     32 H3          2.8993   -8.0939   30.7679 H           1 FG5       0.0573
     33 H4          1.8812   -9.5395   30.8081 H           1 FG5       0.0573
     34 H5          3.6609   -9.6873   30.8028 H           1 FG5       0.0573
     35 H6         12.4187  -15.5959   39.0031 H           1 FG5       0.0527
     36 H7         12.3360  -13.9806   37.1894 H           1 FG5       0.0542
     37 H8          0.8770  -10.8405   32.6397 H           1 FG5       0.0453
     38 H9         10.5113  -15.8815   40.4789 H           1 FG5       0.0546
     39 H10        10.2942  -12.7018   36.7818 H           1 FG5       0.0562
     40 H11         0.8645  -12.9011   33.8936 H           1 FG5       0.0517
     41 H12         4.6655   -9.8746   34.2337 H           1 FG5       0.0403
     42 H13         5.6086  -11.8102   36.0922 H           1 FG5       0.0155
     43 H14         7.7572  -15.0442   40.8501 H           1 FG5       0.0361
     44 H15         4.5822  -15.3724   37.1082 H           1 FG5       0.0685
     45 H16         5.9742  -14.3162   37.0487 H           1 FG5       0.0685
     46 H17         3.6129  -13.9888   38.7835 H           1 FG5       0.1706
@<TRIPOS>BOND
     1     1     3  ar
     2     4     1   1
     3     1    29  ar
     4     2     4   1
     5    22     2   1
     6     2    27   1
     7    19     5   1
     8    28     6   2
     9    28     7   2
    10     9     8  ar
    11    11     8  ar
    12    12     9  ar
    13    13    10  ar
    14    21    10  ar
    15    24    11  ar
    16    26    12  ar
    17    27    13  ar
    18    14    21  ar
    19    25    14  ar
    20    22    15   2
    21    15    25   1
    22    23    16   2
    23    16    24   1
    24    18    17   1
    25    17    22   1
    26    28    18  am
    27    21    19   1
    28    23    20   1
    29    20    26   1
    30    23    28   1
    31    24    26  ar
    32    25    27  ar
    33     4    30   1
    34     4    31   1
    35     5    32   1
    36     5    33   1
    37     5    34   1
    38     8    35   1
    39     9    36   1
    40    10    37   1
    41    11    38   1
    42    12    39   1
    43    13    40   1
    44    14    41   1
    45    15    42   1
    46    16    43   1
    47    17    44   1
    48    17    45   1
    49    18    46   1
@<TRIPOS>SUBSTRUCTURE
     1  FG5      1

