@<TRIPOS>MOLECULE
3ivg_ligand_034
    46    49
SMALL
GAST_HUCK
****
This file was generated by PARSER (from files_GN.cpp)

@<TRIPOS>ATOM
      1 C           8.5849  -14.4757   41.6850 C.2         1 FG5       0.0635
      2 N           8.3424  -14.0895   39.3441 N.pl3       1 FG5      -0.2501
      3 O           9.8349  -14.0832   42.0240 O.co2       1 FG5      -0.5663
      4 CA          8.4081  -15.0946   40.3610 C.3         1 FG5       0.1031
      5 CAA        11.9110  -10.7845   35.2230 C.3         1 FG5       0.0567
      6 OAC         5.4916  -16.1073   37.7664 O.2         1 FG5      -0.1460
      7 OAD         5.9436  -14.1077   36.1499 O.2         1 FG5      -0.1460
      8 CAF        -0.4631  -15.1640   34.2230 C.ar        1 FG5      -0.0767
      9 CAG        -0.7926  -15.9754   35.3333 C.ar        1 FG5      -0.0734
     10 CAH        11.5035  -13.6086   37.3735 C.ar        1 FG5      -0.0489
     11 CAI         0.7976  -14.5382   34.1435 C.ar        1 FG5      -0.0712
     12 CAJ         0.1335  -16.1736   36.3780 C.ar        1 FG5      -0.0310
     13 CAK        10.6882  -14.1600   38.3871 C.ar        1 FG5      -0.0524
     14 CAL         9.6683  -12.1937   36.6186 C.ar        1 FG5      -0.0541
     15 CAM         7.5886  -12.4567   38.0107 C.2         1 FG5      -0.0688
     16 CAN         3.0020  -14.2993   35.3922 C.2         1 FG5      -0.0189
     17 CAO         5.8693  -13.4090   39.5799 C.3         1 FG5       0.0846
     18 NAQ         4.8599  -13.5936   38.5908 N.am        1 FG5      -0.2288
     19 OAR        11.8339  -12.2029   35.4699 O.3         1 FG5      -0.3308
     20 OAS         2.4387  -15.6169   37.1328 O.3         1 FG5      -0.2287
     21 CAU        11.0057  -12.6258   36.4818 C.ar        1 FG5       0.0691
     22 CAV         7.2508  -13.3329   39.0436 C.2         1 FG5       0.0618
     23 CAW         3.4322  -14.8618   36.5930 C.2         1 FG5       0.2522
     24 CAX         1.7095  -14.7500   35.1911 C.ar        1 FG5      -0.0094
     25 CAY         8.8907  -12.7260   37.6581 C.ar        1 FG5      -0.0477
     26 CAZ         1.3879  -15.5525   36.2867 C.ar        1 FG5       0.1269
     27 CBA         9.3564  -13.7157   38.5191 C.ar        1 FG5       0.0540
     28 SBC         4.9985  -14.6674   37.2966 S.o2        1 FG5       0.1039
     29 OXT         7.5480  -13.8226   42.2625 O.co2       1 FG5      -0.5663
     30 H1          7.5117  -15.7140   40.3602 H           1 FG5       0.0766
     31 H2          9.2384  -15.7784   40.1941 H           1 FG5       0.0766
     32 H3         12.7814  -10.5860   34.5969 H           1 FG5       0.0573
     33 H4         12.0189  -10.2110   36.1434 H           1 FG5       0.0573
     34 H5         11.0242  -10.4403   34.6914 H           1 FG5       0.0573
     35 H6         -1.1419  -15.0288   33.4708 H           1 FG5       0.0527
     36 H7         -1.7093  -16.4195   35.3853 H           1 FG5       0.0542
     37 H8         12.4691  -13.9285   37.2769 H           1 FG5       0.0453
     38 H9          1.0444  -13.9513   33.3425 H           1 FG5       0.0546
     39 H10        -0.0970  -16.7578   37.1804 H           1 FG5       0.0562
     40 H11        11.0726  -14.8816   38.9964 H           1 FG5       0.0517
     41 H12         9.2590  -11.5241   35.9638 H           1 FG5       0.0403
     42 H13         6.9547  -11.7974   37.5514 H           1 FG5       0.0155
     43 H14         3.5423  -13.6888   34.7734 H           1 FG5       0.0361
     44 H15         5.7556  -14.2067   40.3105 H           1 FG5       0.0685
     45 H16         5.6475  -12.4734   40.0924 H           1 FG5       0.0685
     46 H17         3.9598  -13.3164   38.8230 H           1 FG5       0.1706
@<TRIPOS>BOND
     1     1     3  ar
     2     4     1   1
     3     1    29  ar
     4     2     4   1
     5    22     2   1
     6     2    27   1
     7    19     5   1
     8    28     6   2
     9    28     7   2
    10     9     8  ar
    11    11     8  ar
    12    12     9  ar
    13    13    10  ar
    14    21    10  ar
    15    24    11  ar
    16    26    12  ar
    17    27    13  ar
    18    14    21  ar
    19    25    14  ar
    20    22    15   2
    21    15    25   1
    22    23    16   2
    23    16    24   1
    24    18    17   1
    25    17    22   1
    26    28    18  am
    27    21    19   1
    28    23    20   1
    29    20    26   1
    30    23    28   1
    31    24    26  ar
    32    25    27  ar
    33     4    30   1
    34     4    31   1
    35     5    32   1
    36     5    33   1
    37     5    34   1
    38     8    35   1
    39     9    36   1
    40    10    37   1
    41    11    38   1
    42    12    39   1
    43    13    40   1
    44    14    41   1
    45    15    42   1
    46    16    43   1
    47    17    44   1
    48    17    45   1
    49    18    46   1
@<TRIPOS>SUBSTRUCTURE
     1  FG5      1

