@<TRIPOS>MOLECULE
3ivg_ligand_088
    46    49
SMALL
GAST_HUCK
****
This file was generated by PARSER (from files_GN.cpp)

@<TRIPOS>ATOM
      1 C           3.3619  -13.8319   39.1283 C.2         1 FG5       0.0635
      2 N           5.1884  -13.3222   37.6005 N.pl3       1 FG5      -0.2501
      3 O           3.0110  -15.1132   38.8559 O.co2       1 FG5      -0.5663
      4 CA          3.8970  -12.9322   38.0987 C.3         1 FG5       0.1031
      5 CAA        10.7592  -14.3173   40.5171 C.3         1 FG5       0.0567
      6 OAC         2.4488  -15.9081   34.1730 O.2         1 FG5      -0.1460
      7 OAD         3.4696  -15.8650   36.4884 O.2         1 FG5      -0.1460
      8 CAF         8.8544  -18.4580   33.1030 C.ar        1 FG5      -0.0767
      9 CAG         8.4993  -17.9068   31.8493 C.ar        1 FG5      -0.0734
     10 CAH         7.6454  -14.4904   40.2083 C.ar        1 FG5      -0.0489
     11 CAI         8.0886  -18.1679   34.2526 C.ar        1 FG5      -0.0712
     12 CAJ         7.3774  -17.0545   31.7378 C.ar        1 FG5      -0.0310
     13 CAK         6.3987  -14.0239   39.7210 C.ar        1 FG5      -0.0524
     14 CAL         8.6128  -14.3251   37.9715 C.ar        1 FG5      -0.0541
     15 CAM         6.9568  -13.5529   36.2287 C.2         1 FG5      -0.0688
     16 CAN         6.0147  -16.9098   35.0330 C.2         1 FG5      -0.0189
     17 CAO         4.7967  -12.8564   35.1241 C.3         1 FG5       0.0846
     18 NAQ         3.6508  -13.6898   34.9315 N.am        1 FG5      -0.2288
     19 OAR         9.9140  -15.2005   39.7627 O.3         1 FG5      -0.3308
     20 OAS         5.4854  -16.0436   33.0250 O.3         1 FG5      -0.2287
     21 CAU         8.7450  -14.6439   39.3434 C.ar        1 FG5       0.0691
     22 CAV         5.6061  -13.2250   36.3072 C.2         1 FG5       0.0618
     23 CAW         5.1163  -16.1102   34.3243 C.2         1 FG5       0.2522
     24 CAX         6.9650  -17.3348   34.1206 C.ar        1 FG5      -0.0094
     25 CAY         7.3563  -13.8905   37.5078 C.ar        1 FG5      -0.0477
     26 CAZ         6.6127  -16.7857   32.8858 C.ar        1 FG5       0.1269
     27 CBA         6.2525  -13.7232   38.3468 C.ar        1 FG5       0.0540
     28 SBC         3.7025  -15.3749   34.9976 S.o2        1 FG5       0.1039
     29 OXT         3.4011  -13.4264   40.4191 O.co2       1 FG5      -0.5663
     30 H1          3.9900  -11.9295   38.5240 H           1 FG5       0.0766
     31 H2          3.1551  -12.8743   37.3078 H           1 FG5       0.0766
     32 H3         11.6902  -14.8493   40.7234 H           1 FG5       0.0573
     33 H4         10.2979  -14.0563   41.4734 H           1 FG5       0.0573
     34 H5         11.0085  -13.4120   39.9543 H           1 FG5       0.0573
     35 H6          9.6705  -19.0690   33.1728 H           1 FG5       0.0527
     36 H7          9.0588  -18.1176   31.0222 H           1 FG5       0.0542
     37 H8          7.7450  -14.7364   41.1963 H           1 FG5       0.0453
     38 H9          8.3427  -18.5664   35.1594 H           1 FG5       0.0546
     39 H10         7.1130  -16.6540   30.8343 H           1 FG5       0.0562
     40 H11         5.6054  -13.9550   40.3649 H           1 FG5       0.0517
     41 H12         9.3994  -14.4369   37.3225 H           1 FG5       0.0403
     42 H13         7.5370  -13.5833   35.3824 H           1 FG5       0.0155
     43 H14         5.9805  -17.1412   36.0258 H           1 FG5       0.0361
     44 H15         4.4531  -11.8164   35.2358 H           1 FG5       0.0685
     45 H16         5.3974  -12.8839   34.2023 H           1 FG5       0.0685
     46 H17         2.8673  -13.2819   34.5281 H           1 FG5       0.1706
@<TRIPOS>BOND
     1     1     3  ar
     2     4     1   1
     3     1    29  ar
     4     2     4   1
     5    22     2   1
     6     2    27   1
     7    19     5   1
     8    28     6   2
     9    28     7   2
    10     9     8  ar
    11    11     8  ar
    12    12     9  ar
    13    13    10  ar
    14    21    10  ar
    15    24    11  ar
    16    26    12  ar
    17    27    13  ar
    18    14    21  ar
    19    25    14  ar
    20    22    15   2
    21    15    25   1
    22    23    16   2
    23    16    24   1
    24    18    17   1
    25    17    22   1
    26    28    18  am
    27    21    19   1
    28    23    20   1
    29    20    26   1
    30    23    28   1
    31    24    26  ar
    32    25    27  ar
    33     4    30   1
    34     4    31   1
    35     5    32   1
    36     5    33   1
    37     5    34   1
    38     8    35   1
    39     9    36   1
    40    10    37   1
    41    11    38   1
    42    12    39   1
    43    13    40   1
    44    14    41   1
    45    15    42   1
    46    16    43   1
    47    17    44   1
    48    17    45   1
    49    18    46   1
@<TRIPOS>SUBSTRUCTURE
     1  FG5      1

