@<TRIPOS>MOLECULE
3ivg_ligand_036
    46    49
SMALL
GAST_HUCK
****
This file was generated by PARSER (from files_GN.cpp)

@<TRIPOS>ATOM
      1 C           2.8466  -14.8854   36.8165 C.2         1 FG5       0.0635
      2 N           4.9292  -14.9174   35.4656 N.pl3       1 FG5      -0.2501
      3 O           2.1205  -15.3077   37.8924 O.co2       1 FG5      -0.5663
      4 CA          4.1551  -15.4986   36.5368 C.3         1 FG5       0.1031
      5 CAA         6.7844  -16.5812   29.7190 C.3         1 FG5       0.0567
      6 OAC         4.0320  -14.2030   39.4291 O.2         1 FG5      -0.1460
      7 OAD         4.7439  -11.7917   39.8634 O.2         1 FG5      -0.1460
      8 CAF        10.9291  -14.5143   39.9512 C.ar        1 FG5      -0.0767
      9 CAG        11.0270  -14.3704   38.5448 C.ar        1 FG5      -0.0734
     10 CAH         6.0107  -17.4379   32.8860 C.ar        1 FG5      -0.0489
     11 CAI         9.6873  -14.3526   40.6024 C.ar        1 FG5      -0.0712
     12 CAJ         9.8829  -14.0654   37.7800 C.ar        1 FG5      -0.0310
     13 CAK         5.3650  -16.9842   34.0536 C.ar        1 FG5      -0.0524
     14 CAL         6.8393  -15.1833   32.4428 C.ar        1 FG5      -0.0541
     15 CAM         6.1224  -13.5065   34.1979 C.2         1 FG5      -0.0688
     16 CAN         7.2338  -13.7961   40.1580 C.2         1 FG5      -0.0189
     17 CAO         5.0893  -12.4017   36.1684 C.3         1 FG5       0.0846
     18 NAQ         4.2978  -12.5262   37.3485 N.am        1 FG5      -0.2288
     19 OAR         7.3778  -17.0103   30.9549 O.3         1 FG5      -0.3308
     20 OAS         7.4416  -13.5768   37.9345 O.3         1 FG5      -0.2287
     21 CAU         6.7300  -16.5399   32.0677 C.ar        1 FG5       0.0691
     22 CAV         5.3476  -13.6200   35.3567 C.2         1 FG5       0.0618
     23 CAW         6.5704  -13.4992   38.9717 C.2         1 FG5       0.2522
     24 CAX         8.5582  -14.0469   39.8243 C.ar        1 FG5      -0.0094
     25 CAY         6.1813  -14.7542   33.6116 C.ar        1 FG5      -0.0477
     26 CAZ         8.6571  -13.9073   38.4396 C.ar        1 FG5       0.1269
     27 CBA         5.4412  -15.6207   34.4163 C.ar        1 FG5       0.0540
     28 SBC         4.9182  -13.0188   38.8586 S.o2        1 FG5       0.1039
     29 OXT         2.3296  -13.9134   36.0341 O.co2       1 FG5      -0.5663
     30 H1          3.9342  -16.5485   36.3576 H           1 FG5       0.0766
     31 H2          4.7752  -15.4698   37.4335 H           1 FG5       0.0766
     32 H3          7.3166  -17.0645   28.9006 H           1 FG5       0.0573
     33 H4          6.8772  -15.5008   29.5945 H           1 FG5       0.0573
     34 H5          5.7317  -16.8663   29.6546 H           1 FG5       0.0573
     35 H6         11.7638  -14.7203   40.5008 H           1 FG5       0.0527
     36 H7         11.9329  -14.4748   38.0875 H           1 FG5       0.0542
     37 H8          5.9587  -18.4237   32.6257 H           1 FG5       0.0453
     38 H9          9.6143  -14.4338   41.6203 H           1 FG5       0.0546
     39 H10         9.9454  -13.9472   36.7657 H           1 FG5       0.0562
     40 H11         4.8609  -17.6551   34.6281 H           1 FG5       0.0517
     41 H12         7.3825  -14.5268   31.8785 H           1 FG5       0.0403
     42 H13         6.5770  -12.6653   33.8438 H           1 FG5       0.0155
     43 H14         6.8395  -13.7983   41.1038 H           1 FG5       0.0361
     44 H15         6.0251  -11.9255   36.4349 H           1 FG5       0.0685
     45 H16         4.5474  -11.6983   35.5337 H           1 FG5       0.0685
     46 H17         3.3627  -12.2991   37.3086 H           1 FG5       0.1706
@<TRIPOS>BOND
     1     1     3  ar
     2     4     1   1
     3     1    29  ar
     4     2     4   1
     5    22     2   1
     6     2    27   1
     7    19     5   1
     8    28     6   2
     9    28     7   2
    10     9     8  ar
    11    11     8  ar
    12    12     9  ar
    13    13    10  ar
    14    21    10  ar
    15    24    11  ar
    16    26    12  ar
    17    27    13  ar
    18    14    21  ar
    19    25    14  ar
    20    22    15   2
    21    15    25   1
    22    23    16   2
    23    16    24   1
    24    18    17   1
    25    17    22   1
    26    28    18  am
    27    21    19   1
    28    23    20   1
    29    20    26   1
    30    23    28   1
    31    24    26  ar
    32    25    27  ar
    33     4    30   1
    34     4    31   1
    35     5    32   1
    36     5    33   1
    37     5    34   1
    38     8    35   1
    39     9    36   1
    40    10    37   1
    41    11    38   1
    42    12    39   1
    43    13    40   1
    44    14    41   1
    45    15    42   1
    46    16    43   1
    47    17    44   1
    48    17    45   1
    49    18    46   1
@<TRIPOS>SUBSTRUCTURE
     1  FG5      1

