@<TRIPOS>MOLECULE
3ivg_ligand_024
    46    49
SMALL
GAST_HUCK
****
This file was generated by PARSER (from files_GN.cpp)

@<TRIPOS>ATOM
      1 C           5.7730  -16.1495   35.3517 C.2         1 FG5       0.0635
      2 N           7.0457  -14.2569   36.3657 N.pl3       1 FG5      -0.2501
      3 O           4.5831  -16.5307   34.8394 O.co2       1 FG5      -0.5663
      4 CA          6.1268  -14.7178   35.3443 C.3         1 FG5       0.1031
      5 CAA        13.0481  -12.4294   35.8142 C.3         1 FG5       0.0567
      6 OAC         2.4864  -12.8251   39.5741 O.2         1 FG5      -0.1460
      7 OAD         2.5399  -15.1674   38.6765 O.2         1 FG5      -0.1460
      8 CAF         2.6591  -11.3212   32.7109 C.ar        1 FG5      -0.0767
      9 CAG         1.4703  -12.0918   32.7051 C.ar        1 FG5      -0.0734
     10 CAH        10.0837  -12.5176   34.9926 C.ar        1 FG5      -0.0489
     11 CAI         3.4818  -11.2813   33.8572 C.ar        1 FG5      -0.0712
     12 CAJ         1.1065  -12.8462   33.8436 C.ar        1 FG5      -0.0310
     13 CAK         8.8426  -13.1772   34.9307 C.ar        1 FG5      -0.0524
     14 CAL        10.0875  -12.6789   37.4254 C.ar        1 FG5      -0.0541
     15 CAM         7.9813  -13.7573   38.3437 C.2         1 FG5      -0.0688
     16 CAN         3.6765  -12.1869   36.2325 C.2         1 FG5      -0.0189
     17 CAO         5.7229  -14.8572   38.5000 C.3         1 FG5       0.0846
     18 NAQ         4.8509  -13.8130   38.9286 N.am        1 FG5      -0.2288
     19 OAR        11.9343  -11.6438   36.2804 O.3         1 FG5      -0.3308
     20 OAS         1.8215  -13.4543   36.1598 O.3         1 FG5      -0.2287
     21 CAU        10.7299  -12.2948   36.2297 C.ar        1 FG5       0.0691
     22 CAV         6.8655  -14.3190   37.7201 C.2         1 FG5       0.0618
     23 CAW         2.8822  -13.0947   36.9267 C.2         1 FG5       0.2522
     24 CAX         3.0922  -12.0245   34.9896 C.ar        1 FG5      -0.0094
     25 CAY         8.8341  -13.3198   37.3483 C.ar        1 FG5      -0.0477
     26 CAZ         1.9348  -12.8026   34.9762 C.ar        1 FG5       0.1269
     27 CBA         8.2168  -13.6071   36.1266 C.ar        1 FG5       0.0540
     28 SBC         3.2199  -13.7385   38.4969 S.o2        1 FG5       0.1039
     29 OXT         6.4362  -17.0287   36.1331 O.co2       1 FG5      -0.5663
     30 H1          5.2135  -14.1359   35.4325 H           1 FG5       0.0766
     31 H2          6.5134  -14.5324   34.3433 H           1 FG5       0.0766
     32 H3         13.9585  -11.8407   35.9336 H           1 FG5       0.0573
     33 H4         12.9473  -12.6773   34.7549 H           1 FG5       0.0573
     34 H5         13.1584  -13.3487   36.3954 H           1 FG5       0.0573
     35 H6          2.9259  -10.7954   31.8779 H           1 FG5       0.0527
     36 H7          0.8806  -12.1083   31.8740 H           1 FG5       0.0542
     37 H8         10.5340  -12.2119   34.1291 H           1 FG5       0.0453
     38 H9          4.3451  -10.7366   33.8632 H           1 FG5       0.0546
     39 H10         0.2586  -13.4169   33.8426 H           1 FG5       0.0562
     40 H11         8.4077  -13.3287   34.0202 H           1 FG5       0.0517
     41 H12        10.5187  -12.4932   38.3339 H           1 FG5       0.0403
     42 H13         8.1387  -13.6703   39.3503 H           1 FG5       0.0155
     43 H14         4.5504  -11.7679   36.5570 H           1 FG5       0.0361
     44 H15         5.1853  -15.5989   37.9154 H           1 FG5       0.0685
     45 H16         6.0989  -15.3684   39.3903 H           1 FG5       0.0685
     46 H17         5.1876  -13.1495   39.5548 H           1 FG5       0.1706
@<TRIPOS>BOND
     1     1     3  ar
     2     4     1   1
     3     1    29  ar
     4     2     4   1
     5    22     2   1
     6     2    27   1
     7    19     5   1
     8    28     6   2
     9    28     7   2
    10     9     8  ar
    11    11     8  ar
    12    12     9  ar
    13    13    10  ar
    14    21    10  ar
    15    24    11  ar
    16    26    12  ar
    17    27    13  ar
    18    14    21  ar
    19    25    14  ar
    20    22    15   2
    21    15    25   1
    22    23    16   2
    23    16    24   1
    24    18    17   1
    25    17    22   1
    26    28    18  am
    27    21    19   1
    28    23    20   1
    29    20    26   1
    30    23    28   1
    31    24    26  ar
    32    25    27  ar
    33     4    30   1
    34     4    31   1
    35     5    32   1
    36     5    33   1
    37     5    34   1
    38     8    35   1
    39     9    36   1
    40    10    37   1
    41    11    38   1
    42    12    39   1
    43    13    40   1
    44    14    41   1
    45    15    42   1
    46    16    43   1
    47    17    44   1
    48    17    45   1
    49    18    46   1
@<TRIPOS>SUBSTRUCTURE
     1  FG5      1

