@<TRIPOS>MOLECULE
3ivg_ligand_043
    46    49
SMALL
GAST_HUCK
****
This file was generated by PARSER (from files_GN.cpp)

@<TRIPOS>ATOM
      1 C           1.9015  -13.9535   38.4585 C.2         1 FG5       0.0635
      2 N           1.3966  -12.8630   36.3666 N.pl3       1 FG5      -0.2501
      3 O           2.2253  -12.8585   39.1831 O.co2       1 FG5      -0.5663
      4 CA          0.9639  -13.8479   37.3267 C.3         1 FG5       0.1031
      5 CAA        -0.7079   -7.4453   33.9702 C.3         1 FG5       0.0567
      6 OAC         6.0628  -12.7395   35.4291 O.2         1 FG5      -0.1460
      7 OAD         6.4065  -15.2998   35.0090 O.2         1 FG5      -0.1460
      8 CAF         9.3393  -14.4744   41.1676 C.ar        1 FG5      -0.0767
      9 CAG         8.0909  -14.7129   41.7858 C.ar        1 FG5      -0.0734
     10 CAH        -0.4339   -9.5864   36.5681 C.ar        1 FG5      -0.0489
     11 CAI         9.4198  -14.2845   39.7718 C.ar        1 FG5      -0.0712
     12 CAJ         6.9077  -14.7579   41.0188 C.ar        1 FG5      -0.0310
     13 CAK        -0.1222  -10.9144   36.9284 C.ar        1 FG5      -0.0524
     14 CAL         1.2895   -9.6281   34.8377 C.ar        1 FG5      -0.0541
     15 CAM         2.5057  -11.8517   34.7038 C.2         1 FG5      -0.0688
     16 CAN         7.9921  -14.1907   37.6662 C.2         1 FG5      -0.0189
     17 CAO         3.1855  -14.2453   35.1658 C.3         1 FG5       0.0846
     18 NAQ         4.1386  -14.4646   36.1956 N.am        1 FG5      -0.2288
     19 OAR        -0.0404   -7.6339   35.2302 O.3         1 FG5      -0.3308
     20 OAS         6.0227  -14.5630   38.6918 O.3         1 FG5      -0.2287
     21 CAU         0.2597   -8.9410   35.5175 C.ar        1 FG5       0.0691
     22 CAV         2.3778  -13.0331   35.4362 C.2         1 FG5       0.0618
     23 CAW         6.6182  -14.3319   37.4950 C.2         1 FG5       0.2522
     24 CAX         8.2332  -14.3392   39.0208 C.ar        1 FG5      -0.0094
     25 CAY         1.5766  -10.9572   35.2038 C.ar        1 FG5      -0.0477
     26 CAZ         6.9982  -14.5703   39.6299 C.ar        1 FG5       0.1269
     27 CBA         0.8911  -11.6085   36.2333 C.ar        1 FG5       0.0540
     28 SBC         5.7886  -14.2044   35.9827 S.o2        1 FG5       0.1039
     29 OXT         2.3511  -15.1598   38.8738 O.co2       1 FG5      -0.5663
     30 H1         -0.0157  -13.5990   37.7372 H           1 FG5       0.0766
     31 H2          0.8501  -14.8207   36.8416 H           1 FG5       0.0766
     32 H3         -0.9972   -6.3960   33.8904 H           1 FG5       0.0573
     33 H4         -1.6124   -8.0554   33.8965 H           1 FG5       0.0573
     34 H5         -0.0449   -7.6769   33.1351 H           1 FG5       0.0573
     35 H6         10.1910  -14.4450   41.7327 H           1 FG5       0.0527
     36 H7          8.0412  -14.8608   42.7946 H           1 FG5       0.0542
     37 H8         -1.1651   -9.0846   37.0774 H           1 FG5       0.0453
     38 H9         10.3183  -14.1094   39.3172 H           1 FG5       0.0546
     39 H10         6.0036  -14.9216   41.4635 H           1 FG5       0.0562
     40 H11        -0.6298  -11.3569   37.6966 H           1 FG5       0.0517
     41 H12         1.8188   -9.1732   34.0916 H           1 FG5       0.0403
     42 H13         3.1619  -11.6728   33.9402 H           1 FG5       0.0155
     43 H14         8.6858  -14.0070   36.9394 H           1 FG5       0.0361
     44 H15         2.5293  -15.1125   35.1033 H           1 FG5       0.0685
     45 H16         3.6901  -14.1573   34.2023 H           1 FG5       0.0685
     46 H17         3.8222  -14.6655   37.0897 H           1 FG5       0.1706
@<TRIPOS>BOND
     1     1     3  ar
     2     4     1   1
     3     1    29  ar
     4     2     4   1
     5    22     2   1
     6     2    27   1
     7    19     5   1
     8    28     6   2
     9    28     7   2
    10     9     8  ar
    11    11     8  ar
    12    12     9  ar
    13    13    10  ar
    14    21    10  ar
    15    24    11  ar
    16    26    12  ar
    17    27    13  ar
    18    14    21  ar
    19    25    14  ar
    20    22    15   2
    21    15    25   1
    22    23    16   2
    23    16    24   1
    24    18    17   1
    25    17    22   1
    26    28    18  am
    27    21    19   1
    28    23    20   1
    29    20    26   1
    30    23    28   1
    31    24    26  ar
    32    25    27  ar
    33     4    30   1
    34     4    31   1
    35     5    32   1
    36     5    33   1
    37     5    34   1
    38     8    35   1
    39     9    36   1
    40    10    37   1
    41    11    38   1
    42    12    39   1
    43    13    40   1
    44    14    41   1
    45    15    42   1
    46    16    43   1
    47    17    44   1
    48    17    45   1
    49    18    46   1
@<TRIPOS>SUBSTRUCTURE
     1  FG5      1

