@<TRIPOS>MOLECULE
3ivg_ligand_007
    46    49
SMALL
GAST_HUCK
****
This file was generated by PARSER (from files_GN.cpp)

@<TRIPOS>ATOM
      1 C           0.8501  -14.3574   37.7878 C.2         1 FG5       0.0635
      2 N           0.9507  -12.0340   38.4397 N.pl3       1 FG5      -0.2501
      3 O          -0.2015  -15.0593   37.2902 O.co2       1 FG5      -0.5663
      4 CA          1.0779  -12.9641   37.3392 C.3         1 FG5       0.1031
      5 CAA        -2.2071   -6.7911   39.5144 C.3         1 FG5       0.0567
      6 OAC         4.6453  -14.0457   36.5858 O.2         1 FG5      -0.1460
      7 OAD         4.3769  -15.2065   38.8005 O.2         1 FG5      -0.1460
      8 CAF        10.9172  -14.4227   39.8889 C.ar        1 FG5      -0.0767
      9 CAG        11.1383  -14.1635   38.5186 C.ar        1 FG5      -0.0734
     10 CAH        -2.0648   -9.8010   38.2165 C.ar        1 FG5      -0.0489
     11 CAI         9.6059  -14.4198   40.4153 C.ar        1 FG5      -0.0712
     12 CAJ        10.0543  -13.9034   37.6567 C.ar        1 FG5      -0.0310
     13 CAK        -1.1787  -10.8115   37.7974 C.ar        1 FG5      -0.0524
     14 CAL        -0.7335   -9.4364   40.2310 C.ar        1 FG5      -0.0541
     15 CAM         1.2870  -10.9398   40.3640 C.2         1 FG5      -0.0688
     16 CAN         7.1648  -14.1090   39.7439 C.2         1 FG5      -0.0189
     17 CAO         3.0463  -12.6634   39.7983 C.3         1 FG5       0.0846
     18 NAQ         3.9894  -12.5555   38.7327 N.am        1 FG5      -0.2288
     19 OAR        -2.7021   -8.1111   39.8106 O.3         1 FG5      -0.3308
     20 OAS         7.5661  -13.7283   37.5617 O.3         1 FG5      -0.2287
     21 CAU        -1.8405   -9.1015   39.4230 C.ar        1 FG5       0.0691
     22 CAV         1.7986  -11.9101   39.5030 C.2         1 FG5       0.0618
     23 CAW         6.5947  -13.8432   38.4998 C.2         1 FG5       0.2522
     24 CAX         8.5351  -14.1569   39.5415 C.ar        1 FG5      -0.0094
     25 CAY         0.1399  -10.4429   39.7879 C.ar        1 FG5      -0.0477
     26 CAZ         8.7534  -13.9072   38.1850 C.ar        1 FG5       0.1269
     27 CBA        -0.0536  -11.1301   38.5891 C.ar        1 FG5       0.0540
     28 SBC         4.8986  -13.8557   38.1450 S.o2        1 FG5       0.1039
     29 OXT         1.8609  -15.0940   38.3073 O.co2       1 FG5      -0.5663
     30 H1          0.3843  -12.7416   36.5296 H           1 FG5       0.0766
     31 H2          2.0712  -12.8833   36.8960 H           1 FG5       0.0766
     32 H3         -2.9801   -6.0682   39.7748 H           1 FG5       0.0573
     33 H4         -1.9764   -6.6760   38.4509 H           1 FG5       0.0573
     34 H5         -1.3164   -6.5641   40.1063 H           1 FG5       0.0573
     35 H6         11.7071  -14.6137   40.5079 H           1 FG5       0.0527
     36 H7         12.0903  -14.1682   38.1470 H           1 FG5       0.0542
     37 H8         -2.8797   -9.5759   37.6397 H           1 FG5       0.0453
     38 H9          9.4405  -14.6041   41.4100 H           1 FG5       0.0546
     39 H10        10.2062  -13.7240   36.6642 H           1 FG5       0.0562
     40 H11        -1.3547  -11.3003   36.9229 H           1 FG5       0.0517
     41 H12        -0.5624   -8.9451   41.1120 H           1 FG5       0.0403
     42 H13         1.6863  -10.6362   41.2520 H           1 FG5       0.0155
     43 H14         6.6616  -14.2812   40.6185 H           1 FG5       0.0361
     44 H15         3.5293  -12.2773   40.6978 H           1 FG5       0.0685
     45 H16         2.7613  -13.6999   39.9866 H           1 FG5       0.0685
     46 H17         4.2027  -11.6651   38.3956 H           1 FG5       0.1706
@<TRIPOS>BOND
     1     1     3  ar
     2     4     1   1
     3     1    29  ar
     4     2     4   1
     5    22     2   1
     6     2    27   1
     7    19     5   1
     8    28     6   2
     9    28     7   2
    10     9     8  ar
    11    11     8  ar
    12    12     9  ar
    13    13    10  ar
    14    21    10  ar
    15    24    11  ar
    16    26    12  ar
    17    27    13  ar
    18    14    21  ar
    19    25    14  ar
    20    22    15   2
    21    15    25   1
    22    23    16   2
    23    16    24   1
    24    18    17   1
    25    17    22   1
    26    28    18  am
    27    21    19   1
    28    23    20   1
    29    20    26   1
    30    23    28   1
    31    24    26  ar
    32    25    27  ar
    33     4    30   1
    34     4    31   1
    35     5    32   1
    36     5    33   1
    37     5    34   1
    38     8    35   1
    39     9    36   1
    40    10    37   1
    41    11    38   1
    42    12    39   1
    43    13    40   1
    44    14    41   1
    45    15    42   1
    46    16    43   1
    47    17    44   1
    48    17    45   1
    49    18    46   1
@<TRIPOS>SUBSTRUCTURE
     1  FG5      1

