@<TRIPOS>MOLECULE
3ivg_ligand_009
    46    49
SMALL
GAST_HUCK
****
This file was generated by PARSER (from files_GN.cpp)

@<TRIPOS>ATOM
      1 C           8.3739  -14.3112   41.4345 C.2         1 FG5       0.0635
      2 N           7.7123  -14.0667   39.1304 N.pl3       1 FG5      -0.2501
      3 O           7.4249  -13.7590   42.2236 O.co2       1 FG5      -0.5663
      4 CA          8.0016  -15.0052   40.1891 C.3         1 FG5       0.1031
      5 CAA        11.7184  -10.8268   35.5283 C.3         1 FG5       0.0567
      6 OAC         2.5175  -15.3562   38.3052 O.2         1 FG5      -0.1460
      7 OAD         4.4728  -14.7529   36.7267 O.2         1 FG5      -0.1460
      8 CAF        -0.3352  -10.9676   33.6982 C.ar        1 FG5      -0.0767
      9 CAG        -0.6899  -10.2712   34.8767 C.ar        1 FG5      -0.0734
     10 CAH        10.6998  -13.2992   37.0053 C.ar        1 FG5      -0.0489
     11 CAI         0.6094  -12.0147   33.7399 C.ar        1 FG5      -0.0712
     12 CAJ        -0.1041  -10.6187   36.1146 C.ar        1 FG5      -0.0310
     13 CAK         9.9877  -13.9145   38.0513 C.ar        1 FG5      -0.0524
     14 CAL         8.6864  -12.1136   36.2952 C.ar        1 FG5      -0.0541
     15 CAM         6.6631  -12.6608   37.7349 C.2         1 FG5      -0.0688
     16 CAN         2.1135  -13.3082   35.3429 C.2         1 FG5      -0.0189
     17 CAO         5.2395  -13.6895   39.5950 C.3         1 FG5       0.0846
     18 NAQ         4.0554  -13.2568   38.9308 N.am        1 FG5      -0.2288
     19 OAR        10.7469  -11.8006   35.1081 O.3         1 FG5      -0.3308
     20 OAS         1.5241  -12.1781   37.1919 O.3         1 FG5      -0.2287
     21 CAU        10.0622  -12.3811   36.1388 C.ar        1 FG5       0.0691
     22 CAV         6.5092  -13.4909   38.8499 C.2         1 FG5       0.0618
     23 CAW         2.3061  -13.1776   36.7159 C.2         1 FG5       0.2522
     24 CAX         1.1833  -12.3489   34.9809 C.ar        1 FG5      -0.0094
     25 CAY         7.9854  -12.7473   37.3409 C.ar        1 FG5      -0.0477
     26 CAZ         0.8338  -11.6638   36.1453 C.ar        1 FG5       0.1269
     27 CBA         8.6192  -13.6240   38.2219 C.ar        1 FG5       0.0540
     28 SBC         3.3535  -14.1557   37.6859 S.o2        1 FG5       0.1039
     29 OXT         9.6719  -14.2208   41.8016 O.co2       1 FG5      -0.5663
     30 H1          7.1532  -15.6621   40.3860 H           1 FG5       0.0766
     31 H2          8.8093  -15.6843   39.9031 H           1 FG5       0.0766
     32 H3         12.1951  -10.4056   34.6441 H           1 FG5       0.0573
     33 H4         12.5031  -11.2827   36.1326 H           1 FG5       0.0573
     34 H5         11.2548  -10.0165   36.0961 H           1 FG5       0.0573
     35 H6         -0.7637  -10.7086   32.8077 H           1 FG5       0.0527
     36 H7         -1.3746   -9.5127   34.8349 H           1 FG5       0.0542
     37 H8         11.6881  -13.5204   36.8837 H           1 FG5       0.0453
     38 H9          0.8758  -12.5185   32.8908 H           1 FG5       0.0546
     39 H10        -0.3543  -10.1205   36.9717 H           1 FG5       0.0562
     40 H11        10.4731  -14.5570   38.6831 H           1 FG5       0.0517
     41 H12         8.2012  -11.4748   35.6595 H           1 FG5       0.0403
     42 H13         5.9406  -12.0883   37.2904 H           1 FG5       0.0155
     43 H14         2.5627  -13.9821   34.7210 H           1 FG5       0.0361
     44 H15         5.1180  -14.7451   39.8259 H           1 FG5       0.0685
     45 H16         5.3075  -13.1592   40.5444 H           1 FG5       0.0685
     46 H17         3.5400  -12.5306   39.3258 H           1 FG5       0.1706
@<TRIPOS>BOND
     1     1     3  ar
     2     4     1   1
     3     1    29  ar
     4     2     4   1
     5    22     2   1
     6     2    27   1
     7    19     5   1
     8    28     6   2
     9    28     7   2
    10     9     8  ar
    11    11     8  ar
    12    12     9  ar
    13    13    10  ar
    14    21    10  ar
    15    24    11  ar
    16    26    12  ar
    17    27    13  ar
    18    14    21  ar
    19    25    14  ar
    20    22    15   2
    21    15    25   1
    22    23    16   2
    23    16    24   1
    24    18    17   1
    25    17    22   1
    26    28    18  am
    27    21    19   1
    28    23    20   1
    29    20    26   1
    30    23    28   1
    31    24    26  ar
    32    25    27  ar
    33     4    30   1
    34     4    31   1
    35     5    32   1
    36     5    33   1
    37     5    34   1
    38     8    35   1
    39     9    36   1
    40    10    37   1
    41    11    38   1
    42    12    39   1
    43    13    40   1
    44    14    41   1
    45    15    42   1
    46    16    43   1
    47    17    44   1
    48    17    45   1
    49    18    46   1
@<TRIPOS>SUBSTRUCTURE
     1  FG5      1

