@<TRIPOS>MOLECULE
3ivg_ligand_073
    46    49
SMALL
GAST_HUCK
****
This file was generated by PARSER (from files_GN.cpp)

@<TRIPOS>ATOM
      1 C           5.6867  -11.9868   35.1468 C.2         1 FG5       0.0635
      2 N           3.3408  -11.4342   35.4472 N.pl3       1 FG5      -0.2501
      3 O           6.2423  -10.7627   35.2769 O.co2       1 FG5      -0.5663
      4 CA          4.3159  -12.1277   34.6406 C.3         1 FG5       0.1031
      5 CAA        -1.0695   -7.1478   33.7452 C.3         1 FG5       0.0567
      6 OAC         4.7616  -16.3733   36.6257 O.2         1 FG5      -0.1460
      7 OAD         3.5451  -15.9832   38.8458 O.2         1 FG5      -0.1460
      8 CAF        10.0029  -14.4107   40.7429 C.ar        1 FG5      -0.0767
      9 CAG        10.4776  -14.2634   39.4201 C.ar        1 FG5      -0.0734
     10 CAH         1.6013   -8.5886   33.7041 C.ar        1 FG5      -0.0489
     11 CAI         8.6321  -14.6355   40.9875 C.ar        1 FG5      -0.0712
     12 CAJ         9.5875  -14.3460   38.3272 C.ar        1 FG5      -0.0310
     13 CAK         2.5019   -9.6723   33.8232 C.ar        1 FG5      -0.0524
     14 CAL         0.8291   -8.9444   35.9888 C.ar        1 FG5      -0.0541
     15 CAM         2.0012  -10.8598   37.1520 C.2         1 FG5      -0.0688
     16 CAN         6.3981  -14.9557   39.8054 C.2         1 FG5      -0.0189
     17 CAO         3.6550  -12.7147   37.6444 C.3         1 FG5       0.0846
     18 NAQ         3.6938  -14.0099   37.0609 N.am        1 FG5      -0.2288
     19 OAR        -0.0327   -7.1034   34.7378 O.3         1 FG5      -0.3308
     20 OAS         7.1889  -14.7275   37.7122 O.3         1 FG5      -0.2287
     21 CAU         0.7674   -8.2136   34.7846 C.ar        1 FG5       0.0691
     22 CAV         3.0237  -11.7251   36.7412 C.2         1 FG5       0.0618
     23 CAW         6.0718  -14.9590   38.4508 C.2         1 FG5       0.2522
     24 CAX         7.7590  -14.7194   39.8890 C.ar        1 FG5      -0.0094
     25 CAY         1.7254  -10.0190   36.0927 C.ar        1 FG5      -0.0477
     26 CAZ         8.2226  -14.5783   38.5792 C.ar        1 FG5       0.1269
     27 CBA         2.5663  -10.3928   35.0399 C.ar        1 FG5       0.0540
     28 SBC         4.5058  -15.3029   37.7765 S.o2        1 FG5       0.1039
     29 OXT         6.4547  -13.0812   35.3800 O.co2       1 FG5      -0.5663
     30 H1          4.0289  -13.1823   34.5983 H           1 FG5       0.0766
     31 H2          4.3225  -11.7717   33.6083 H           1 FG5       0.0766
     32 H3         -1.7309   -6.2947   33.8995 H           1 FG5       0.0573
     33 H4         -1.6704   -8.0591   33.8222 H           1 FG5       0.0573
     34 H5         -0.6468   -7.0737   32.7417 H           1 FG5       0.0573
     35 H6         10.6565  -14.3451   41.5259 H           1 FG5       0.0527
     36 H7         11.4767  -14.0959   39.2497 H           1 FG5       0.0542
     37 H8          1.5751   -8.0588   32.8307 H           1 FG5       0.0453
     38 H9          8.2881  -14.7480   41.9403 H           1 FG5       0.0546
     39 H10         9.9273  -14.2551   37.3655 H           1 FG5       0.0562
     40 H11         3.1170   -9.9044   33.0426 H           1 FG5       0.0517
     41 H12         0.2444   -8.6834   36.7931 H           1 FG5       0.0403
     42 H13         1.5715  -10.8107   38.0791 H           1 FG5       0.0155
     43 H14         5.7662  -15.1280   40.5885 H           1 FG5       0.0361
     44 H15         4.6716  -12.3750   37.8609 H           1 FG5       0.0685
     45 H16         3.1139  -12.7716   38.5938 H           1 FG5       0.0685
     46 H17         3.0081  -14.2290   36.4111 H           1 FG5       0.1706
@<TRIPOS>BOND
     1     1     3  ar
     2     4     1   1
     3     1    29  ar
     4     2     4   1
     5    22     2   1
     6     2    27   1
     7    19     5   1
     8    28     6   2
     9    28     7   2
    10     9     8  ar
    11    11     8  ar
    12    12     9  ar
    13    13    10  ar
    14    21    10  ar
    15    24    11  ar
    16    26    12  ar
    17    27    13  ar
    18    14    21  ar
    19    25    14  ar
    20    22    15   2
    21    15    25   1
    22    23    16   2
    23    16    24   1
    24    18    17   1
    25    17    22   1
    26    28    18  am
    27    21    19   1
    28    23    20   1
    29    20    26   1
    30    23    28   1
    31    24    26  ar
    32    25    27  ar
    33     4    30   1
    34     4    31   1
    35     5    32   1
    36     5    33   1
    37     5    34   1
    38     8    35   1
    39     9    36   1
    40    10    37   1
    41    11    38   1
    42    12    39   1
    43    13    40   1
    44    14    41   1
    45    15    42   1
    46    16    43   1
    47    17    44   1
    48    17    45   1
    49    18    46   1
@<TRIPOS>SUBSTRUCTURE
     1  FG5      1

