@<TRIPOS>MOLECULE
3ivg_ligand_050
    46    49
SMALL
GAST_HUCK
****
This file was generated by PARSER (from files_GN.cpp)

@<TRIPOS>ATOM
      1 C           4.0744  -15.8585   37.4095 C.2         1 FG5       0.0635
      2 N           4.5364  -15.2013   35.1285 N.pl3       1 FG5      -0.2501
      3 O           5.1519  -16.6751   37.3957 O.co2       1 FG5      -0.5663
      4 CA          3.5348  -15.3117   36.1584 C.3         1 FG5       0.1031
      5 CAA         7.7607  -19.1899   31.5806 C.3         1 FG5       0.0567
      6 OAC         9.1857  -11.9112   36.5523 O.2         1 FG5      -0.1460
      7 OAD         8.6514  -14.1586   35.4887 O.2         1 FG5      -0.1460
      8 CAF         7.5458  -15.1577   42.3170 C.ar        1 FG5      -0.0767
      9 CAG         6.5726  -15.9985   41.7338 C.ar        1 FG5      -0.0734
     10 CAH         4.8741  -18.2865   33.0061 C.ar        1 FG5      -0.0489
     11 CAI         8.2678  -14.2395   41.5215 C.ar        1 FG5      -0.0712
     12 CAJ         6.2985  -15.9123   40.3510 C.ar        1 FG5      -0.0310
     13 CAK         4.3248  -17.4715   34.0197 C.ar        1 FG5      -0.0524
     14 CAL         6.4734  -16.5269   32.4292 C.ar        1 FG5      -0.0541
     15 CAM         6.1859  -14.4364   33.8160 C.2         1 FG5      -0.0688
     16 CAN         8.4770  -13.3570   39.1454 C.2         1 FG5      -0.0189
     17 CAO         5.4174  -12.8475   35.6308 C.3         1 FG5       0.0846
     18 NAQ         6.7189  -12.2650   35.7081 N.am        1 FG5      -0.2288
     19 OAR         6.4815  -18.6226   31.2393 O.3         1 FG5      -0.3308
     20 OAS         6.8965  -14.6859   38.2552 O.3         1 FG5      -0.2287
     21 CAU         5.9613  -17.8267   32.2257 C.ar        1 FG5       0.0691
     22 CAV         5.3586  -14.1379   34.8996 C.2         1 FG5       0.0618
     23 CAW         7.7854  -13.6936   37.9903 C.2         1 FG5       0.2522
     24 CAX         7.9675  -14.1564   40.1496 C.ar        1 FG5      -0.0094
     25 CAY         5.8919  -15.7268   33.4269 C.ar        1 FG5      -0.0477
     26 CAZ         6.9959  -14.9732   39.5747 C.ar        1 FG5       0.1269
     27 CBA         4.8426  -16.1740   34.2297 C.ar        1 FG5       0.0540
     28 SBC         8.0505  -13.0200   36.4224 S.o2        1 FG5       0.1039
     29 OXT         3.2840  -15.8845   38.5042 O.co2       1 FG5      -0.5663
     30 H1          3.1003  -14.3321   36.3568 H           1 FG5       0.0766
     31 H2          2.7090  -15.9476   35.8309 H           1 FG5       0.0766
     32 H3          8.0785  -19.8200   30.7466 H           1 FG5       0.0573
     33 H4          7.6950  -19.8143   32.4776 H           1 FG5       0.0573
     34 H5          8.5189  -18.4124   31.7283 H           1 FG5       0.0573
     35 H6          7.7242  -15.2260   43.3246 H           1 FG5       0.0527
     36 H7          6.0592  -16.6695   42.3113 H           1 FG5       0.0542
     37 H8          4.4863  -19.2156   32.8370 H           1 FG5       0.0453
     38 H9          8.9857  -13.6471   41.9425 H           1 FG5       0.0546
     39 H10         5.6026  -16.5251   39.9209 H           1 FG5       0.0562
     40 H11         3.5515  -17.8247   34.5875 H           1 FG5       0.0517
     41 H12         7.2600  -16.1744   31.8722 H           1 FG5       0.0403
     42 H13         6.9023  -13.8346   33.4042 H           1 FG5       0.0155
     43 H14         9.2225  -12.6653   39.2372 H           1 FG5       0.0361
     44 H15         4.7711  -12.1421   35.1082 H           1 FG5       0.0685
     45 H16         5.0341  -12.9603   36.6452 H           1 FG5       0.0685
     46 H17         6.8779  -11.4435   35.2115 H           1 FG5       0.1706
@<TRIPOS>BOND
     1     1     3  ar
     2     4     1   1
     3     1    29  ar
     4     2     4   1
     5    22     2   1
     6     2    27   1
     7    19     5   1
     8    28     6   2
     9    28     7   2
    10     9     8  ar
    11    11     8  ar
    12    12     9  ar
    13    13    10  ar
    14    21    10  ar
    15    24    11  ar
    16    26    12  ar
    17    27    13  ar
    18    14    21  ar
    19    25    14  ar
    20    22    15   2
    21    15    25   1
    22    23    16   2
    23    16    24   1
    24    18    17   1
    25    17    22   1
    26    28    18  am
    27    21    19   1
    28    23    20   1
    29    20    26   1
    30    23    28   1
    31    24    26  ar
    32    25    27  ar
    33     4    30   1
    34     4    31   1
    35     5    32   1
    36     5    33   1
    37     5    34   1
    38     8    35   1
    39     9    36   1
    40    10    37   1
    41    11    38   1
    42    12    39   1
    43    13    40   1
    44    14    41   1
    45    15    42   1
    46    16    43   1
    47    17    44   1
    48    17    45   1
    49    18    46   1
@<TRIPOS>SUBSTRUCTURE
     1  FG5      1

