@<TRIPOS>MOLECULE
3ivg_ligand_041
    46    49
SMALL
GAST_HUCK
****
This file was generated by PARSER (from files_GN.cpp)

@<TRIPOS>ATOM
      1 C           1.1919  -14.6470   36.9718 C.2         1 FG5       0.0635
      2 N           1.4704  -12.5026   38.1186 N.pl3       1 FG5      -0.2501
      3 O           1.3298  -15.3132   38.1415 O.co2       1 FG5      -0.5663
      4 CA          1.4697  -13.2031   36.8585 C.3         1 FG5       0.1031
      5 CAA        -2.2375   -7.7231   39.9683 C.3         1 FG5       0.0567
      6 OAC         7.0494  -13.8746   37.8809 O.2         1 FG5      -0.1460
      7 OAD         5.9105  -12.9827   35.7530 O.2         1 FG5      -0.1460
      8 CAF         2.9036  -19.1283   35.3355 C.ar        1 FG5      -0.0767
      9 CAG         3.8512  -19.6887   36.2228 C.ar        1 FG5      -0.0734
     10 CAH        -1.6045  -10.4079   38.6517 C.ar        1 FG5      -0.0489
     11 CAI         2.8846  -17.7357   35.1016 C.ar        1 FG5      -0.0712
     12 CAJ         4.7702  -18.8634   36.9025 C.ar        1 FG5      -0.0310
     13 CAK        -0.7520  -11.2966   37.9658 C.ar        1 FG5      -0.0524
     14 CAL        -0.0100  -10.2805   40.4965 C.ar        1 FG5      -0.0541
     15 CAM         2.0374  -11.7461   40.1399 C.2         1 FG5      -0.0688
     16 CAN         4.0410  -15.5597   35.7637 C.2         1 FG5      -0.0189
     17 CAO         3.7432  -13.2635   39.0332 C.3         1 FG5       0.0846
     18 NAQ         4.5896  -12.7628   38.0007 N.am        1 FG5      -0.2288
     19 OAR        -2.0520   -9.0122   40.5821 O.3         1 FG5      -0.3308
     20 OAS         5.4687  -16.4838   37.2296 O.3         1 FG5      -0.2287
     21 CAU        -1.2257   -9.8696   39.9042 C.ar        1 FG5       0.0691
     22 CAV         2.4487  -12.5354   39.0682 C.2         1 FG5       0.0618
     23 CAW         5.0489  -15.3091   36.6922 C.2         1 FG5       0.2522
     24 CAX         3.8122  -16.9263   35.7801 C.ar        1 FG5      -0.0094
     25 CAY         0.8186  -11.1815   39.8043 C.ar        1 FG5      -0.0477
     26 CAZ         4.7280  -17.4747   36.6812 C.ar        1 FG5       0.1269
     27 CBA         0.4782  -11.6778   38.5459 C.ar        1 FG5       0.0540
     28 SBC         5.6544  -13.7410   37.1291 S.o2        1 FG5       0.1039
     29 OXT         0.8052  -15.3335   35.8707 O.co2       1 FG5      -0.5663
     30 H1          0.7244  -12.7820   36.1799 H           1 FG5       0.0766
     31 H2          2.4293  -13.0667   36.3656 H           1 FG5       0.0766
     32 H3         -2.8722   -7.1241   40.6190 H           1 FG5       0.0573
     33 H4         -2.7366   -7.8094   39.0001 H           1 FG5       0.0573
     34 H5         -1.2867   -7.2011   39.8390 H           1 FG5       0.0573
     35 H6          2.2333  -19.7335   34.8580 H           1 FG5       0.0527
     36 H7          3.8682  -20.7015   36.3730 H           1 FG5       0.0542
     37 H8         -2.5018  -10.1571   38.2305 H           1 FG5       0.0453
     38 H9          2.2014  -17.3274   34.4612 H           1 FG5       0.0546
     39 H10         5.4572  -19.2625   37.5445 H           1 FG5       0.0562
     40 H11        -1.0369  -11.6615   37.0559 H           1 FG5       0.0517
     41 H12         0.2611   -9.9272   41.4165 H           1 FG5       0.0403
     42 H13         2.5386  -11.6038   41.0129 H           1 FG5       0.0155
     43 H14         3.5529  -14.8718   35.1914 H           1 FG5       0.0361
     44 H15         4.2773  -13.1464   39.9807 H           1 FG5       0.0685
     45 H16         3.5319  -14.3302   38.8973 H           1 FG5       0.0685
     46 H17         4.7316  -11.7980   37.9540 H           1 FG5       0.1706
@<TRIPOS>BOND
     1     1     3  ar
     2     4     1   1
     3     1    29  ar
     4     2     4   1
     5    22     2   1
     6     2    27   1
     7    19     5   1
     8    28     6   2
     9    28     7   2
    10     9     8  ar
    11    11     8  ar
    12    12     9  ar
    13    13    10  ar
    14    21    10  ar
    15    24    11  ar
    16    26    12  ar
    17    27    13  ar
    18    14    21  ar
    19    25    14  ar
    20    22    15   2
    21    15    25   1
    22    23    16   2
    23    16    24   1
    24    18    17   1
    25    17    22   1
    26    28    18  am
    27    21    19   1
    28    23    20   1
    29    20    26   1
    30    23    28   1
    31    24    26  ar
    32    25    27  ar
    33     4    30   1
    34     4    31   1
    35     5    32   1
    36     5    33   1
    37     5    34   1
    38     8    35   1
    39     9    36   1
    40    10    37   1
    41    11    38   1
    42    12    39   1
    43    13    40   1
    44    14    41   1
    45    15    42   1
    46    16    43   1
    47    17    44   1
    48    17    45   1
    49    18    46   1
@<TRIPOS>SUBSTRUCTURE
     1  FG5      1

