@<TRIPOS>MOLECULE
3ivg_ligand_075
    46    49
SMALL
GAST_HUCK
****
This file was generated by PARSER (from files_GN.cpp)

@<TRIPOS>ATOM
      1 C          11.6382  -12.5171   36.6195 C.2         1 FG5       0.0635
      2 N           9.5600  -13.1934   37.8070 N.pl3       1 FG5      -0.2501
      3 O          12.3920  -12.9509   35.5788 O.co2       1 FG5      -0.5663
      4 CA         10.9502  -13.4673   37.5006 C.3         1 FG5       0.1031
      5 CAA         6.3175  -15.5456   42.7255 C.3         1 FG5       0.0567
      6 OAC         5.7020  -13.7705   34.9651 O.2         1 FG5      -0.1460
      7 OAD         7.1432  -13.4164   32.8273 O.2         1 FG5      -0.1460
      8 CAF         2.4582   -8.7060   31.2328 C.ar        1 FG5      -0.0767
      9 CAG         1.6582   -8.9956   32.3644 C.ar        1 FG5      -0.0734
     10 CAH         8.6869  -14.3118   41.2800 C.ar        1 FG5      -0.0489
     11 CAI         3.7353   -9.2958   31.0950 C.ar        1 FG5      -0.0712
     12 CAJ         2.1272   -9.8849   33.3594 C.ar        1 FG5      -0.0310
     13 CAK         9.5274  -14.0743   40.1752 C.ar        1 FG5      -0.0524
     14 CAL         6.7645  -13.4694   40.0259 C.ar        1 FG5      -0.0541
     15 CAM         7.3721  -12.7047   37.6826 C.2         1 FG5      -0.0688
     16 CAN         5.3517  -10.9139   32.2202 C.2         1 FG5      -0.0189
     17 CAO         8.7322  -12.2981   35.5580 C.3         1 FG5       0.0846
     18 NAQ         7.5652  -11.7635   34.9239 N.am        1 FG5      -0.2288
     19 OAR         6.4750  -14.1903   42.2825 O.3         1 FG5      -0.3308
     20 OAS         4.0435  -11.3706   33.9873 O.3         1 FG5      -0.2287
     21 CAU         7.3036  -14.0270   41.2050 C.ar        1 FG5       0.0691
     22 CAV         8.5778  -12.7236   36.9779 C.2         1 FG5       0.0618
     23 CAW         5.2385  -11.6417   33.4013 C.2         1 FG5       0.2522
     24 CAX         4.1822  -10.1863   32.0867 C.ar        1 FG5      -0.0094
     25 CAY         7.6264  -13.2224   38.9420 C.ar        1 FG5      -0.0477
     26 CAZ         3.3926  -10.4840   33.1980 C.ar        1 FG5       0.1269
     27 CBA         8.9876  -13.5207   38.9949 C.ar        1 FG5       0.0540
     28 SBC         6.4513  -12.6958   34.0642 S.o2        1 FG5       0.1039
     29 OXT        11.6074  -11.1900   36.8875 O.co2       1 FG5      -0.5663
     30 H1         11.5542  -13.4663   38.4049 H           1 FG5       0.0766
     31 H2         11.0030  -14.4697   37.0784 H           1 FG5       0.0766
     32 H3          5.5224  -15.5604   43.4766 H           1 FG5       0.0573
     33 H4          7.2310  -15.9107   43.1922 H           1 FG5       0.0573
     34 H5          6.0334  -16.2140   41.9093 H           1 FG5       0.0573
     35 H6          2.1016   -8.0733   30.5118 H           1 FG5       0.0527
     36 H7          0.7337   -8.5663   32.4566 H           1 FG5       0.0542
     37 H8          9.0847  -14.6800   42.1395 H           1 FG5       0.0453
     38 H9          4.3082   -9.0881   30.2765 H           1 FG5       0.0546
     39 H10         1.5507  -10.0952   34.1771 H           1 FG5       0.0562
     40 H11        10.5174  -14.2952   40.2525 H           1 FG5       0.0517
     41 H12         5.7664  -13.2399   39.9660 H           1 FG5       0.0403
     42 H13         6.4597  -12.3914   37.3348 H           1 FG5       0.0155
     43 H14         6.1451  -10.9044   31.5854 H           1 FG5       0.0361
     44 H15         9.4817  -11.4991   35.5422 H           1 FG5       0.0685
     45 H16         9.1301  -13.1367   34.9842 H           1 FG5       0.0685
     46 H17         7.2861  -10.8720   35.1885 H           1 FG5       0.1706
@<TRIPOS>BOND
     1     1     3  ar
     2     4     1   1
     3     1    29  ar
     4     2     4   1
     5    22     2   1
     6     2    27   1
     7    19     5   1
     8    28     6   2
     9    28     7   2
    10     9     8  ar
    11    11     8  ar
    12    12     9  ar
    13    13    10  ar
    14    21    10  ar
    15    24    11  ar
    16    26    12  ar
    17    27    13  ar
    18    14    21  ar
    19    25    14  ar
    20    22    15   2
    21    15    25   1
    22    23    16   2
    23    16    24   1
    24    18    17   1
    25    17    22   1
    26    28    18  am
    27    21    19   1
    28    23    20   1
    29    20    26   1
    30    23    28   1
    31    24    26  ar
    32    25    27  ar
    33     4    30   1
    34     4    31   1
    35     5    32   1
    36     5    33   1
    37     5    34   1
    38     8    35   1
    39     9    36   1
    40    10    37   1
    41    11    38   1
    42    12    39   1
    43    13    40   1
    44    14    41   1
    45    15    42   1
    46    16    43   1
    47    17    44   1
    48    17    45   1
    49    18    46   1
@<TRIPOS>SUBSTRUCTURE
     1  FG5      1

