@<TRIPOS>MOLECULE
3ivg_ligand_067
    46    49
SMALL
GAST_HUCK
****
This file was generated by PARSER (from files_GN.cpp)

@<TRIPOS>ATOM
      1 C           8.8716   -8.5727   36.7001 C.2         1 FG5       0.0635
      2 N           8.3114  -10.8182   35.8518 N.pl3       1 FG5      -0.2501
      3 O           9.4196   -8.9452   37.8793 O.co2       1 FG5      -0.5663
      4 CA          8.8043   -9.4944   35.5397 C.3         1 FG5       0.1031
      5 CAA        10.6927  -14.6668   40.3811 C.3         1 FG5       0.0567
      6 OAC         4.0076  -11.8978   36.5366 O.2         1 FG5      -0.1460
      7 OAD         3.1625  -13.3405   34.6879 O.2         1 FG5      -0.1460
      8 CAF        -1.2186   -8.1256   33.7547 C.ar        1 FG5      -0.0767
      9 CAG        -0.2138   -7.1333   33.7324 C.ar        1 FG5      -0.0734
     10 CAH        10.6199  -12.7092   38.1184 C.ar        1 FG5      -0.0489
     11 CAI        -0.8890   -9.4738   34.0081 C.ar        1 FG5      -0.0712
     12 CAJ         1.1365   -7.4773   33.9543 C.ar        1 FG5      -0.0310
     13 CAK        10.2111  -11.6414   37.2968 C.ar        1 FG5      -0.0524
     14 CAL         8.5640  -13.9236   37.6149 C.ar        1 FG5      -0.0541
     15 CAM         7.0594  -12.6722   35.9911 C.2         1 FG5      -0.0688
     16 CAN         1.0894  -11.0041   34.5068 C.2         1 FG5      -0.0189
     17 CAO         6.1836  -10.8281   34.4484 C.3         1 FG5       0.0846
     18 NAQ         5.0973  -11.6704   34.0676 N.am        1 FG5      -0.2288
     19 OAR        10.1828  -14.9251   39.0616 O.3         1 FG5      -0.3308
     20 OAS         2.6602   -9.3952   34.4272 O.3         1 FG5      -0.2287
     21 CAU         9.7932  -13.8453   38.3097 C.ar        1 FG5       0.0691
     22 CAV         7.1635  -11.4069   35.4045 C.2         1 FG5       0.0618
     23 CAW         2.4484  -10.7212   34.6252 C.2         1 FG5       0.2522
     24 CAX         0.4596   -9.8013   34.2317 C.ar        1 FG5      -0.0094
     25 CAY         8.1759  -12.8490   36.7913 C.ar        1 FG5      -0.0477
     26 CAZ         1.4561   -8.8235   34.1977 C.ar        1 FG5       0.1269
     27 CBA         8.9583  -11.7040   36.6517 C.ar        1 FG5       0.0540
     28 SBC         3.6924  -11.8712   34.9776 S.o2        1 FG5       0.1039
     29 OXT         8.7456   -7.2430   36.4928 O.co2       1 FG5      -0.5663
     30 H1          9.7957   -9.5790   35.0863 H           1 FG5       0.0766
     31 H2          8.1711   -9.0168   34.7897 H           1 FG5       0.0766
     32 H3         10.8387  -15.6265   40.8764 H           1 FG5       0.0573
     33 H4          9.9902  -14.0770   40.9734 H           1 FG5       0.0573
     34 H5         11.6568  -14.1559   40.3377 H           1 FG5       0.0573
     35 H6         -2.1908   -7.8671   33.5773 H           1 FG5       0.0527
     36 H7         -0.4671   -6.1613   33.5482 H           1 FG5       0.0542
     37 H8         11.5237  -12.6524   38.5895 H           1 FG5       0.0453
     38 H9         -1.6121  -10.1964   34.0233 H           1 FG5       0.0546
     39 H10         1.8696   -6.7662   33.9411 H           1 FG5       0.0562
     40 H11        10.8280  -10.8363   37.1701 H           1 FG5       0.0517
     41 H12         7.9574  -14.7454   37.7104 H           1 FG5       0.0403
     42 H13         6.3139  -13.3591   35.8563 H           1 FG5       0.0155
     43 H14         0.6384  -11.9165   34.6027 H           1 FG5       0.0361
     44 H15         5.7952   -9.8934   34.8584 H           1 FG5       0.0685
     45 H16         6.7244  -10.5985   33.5296 H           1 FG5       0.0685
     46 H17         5.1755  -12.1742   33.2431 H           1 FG5       0.1706
@<TRIPOS>BOND
     1     1     3  ar
     2     4     1   1
     3     1    29  ar
     4     2     4   1
     5    22     2   1
     6     2    27   1
     7    19     5   1
     8    28     6   2
     9    28     7   2
    10     9     8  ar
    11    11     8  ar
    12    12     9  ar
    13    13    10  ar
    14    21    10  ar
    15    24    11  ar
    16    26    12  ar
    17    27    13  ar
    18    14    21  ar
    19    25    14  ar
    20    22    15   2
    21    15    25   1
    22    23    16   2
    23    16    24   1
    24    18    17   1
    25    17    22   1
    26    28    18  am
    27    21    19   1
    28    23    20   1
    29    20    26   1
    30    23    28   1
    31    24    26  ar
    32    25    27  ar
    33     4    30   1
    34     4    31   1
    35     5    32   1
    36     5    33   1
    37     5    34   1
    38     8    35   1
    39     9    36   1
    40    10    37   1
    41    11    38   1
    42    12    39   1
    43    13    40   1
    44    14    41   1
    45    15    42   1
    46    16    43   1
    47    17    44   1
    48    17    45   1
    49    18    46   1
@<TRIPOS>SUBSTRUCTURE
     1  FG5      1

