@<TRIPOS>MOLECULE
3ivg_ligand_097
    46    49
SMALL
GAST_HUCK
****
This file was generated by PARSER (from files_GN.cpp)

@<TRIPOS>ATOM
      1 C           6.0458  -14.3770   40.7524 C.2         1 FG5       0.0635
      2 N           5.1080  -13.4083   38.7358 N.pl3       1 FG5      -0.2501
      3 O           6.2285  -15.6083   40.2257 O.co2       1 FG5      -0.5663
      4 CA          5.0377  -13.4669   40.1737 C.3         1 FG5       0.1031
      5 CAA         1.9078  -16.0625   34.0435 C.3         1 FG5       0.0567
      6 OAC        10.6280  -14.3976   37.2608 O.2         1 FG5      -0.1460
      7 OAD        10.2080  -11.9446   36.7435 O.2         1 FG5      -0.1460
      8 CAF         6.6913  -14.8600   31.5121 C.ar        1 FG5      -0.0767
      9 CAG         6.3696  -16.0374   32.2244 C.ar        1 FG5      -0.0734
     10 CAH         2.0433  -14.6729   36.9666 C.ar        1 FG5      -0.0489
     11 CAI         7.4207  -13.8247   32.1355 C.ar        1 FG5      -0.0712
     12 CAJ         6.7739  -16.1949   33.5660 C.ar        1 FG5      -0.0310
     13 CAK         2.8474  -14.3511   38.0785 C.ar        1 FG5      -0.0524
     14 CAL         3.7813  -13.8758   35.4472 C.ar        1 FG5      -0.0541
     15 CAM         5.8193  -12.9867   36.6526 C.2         1 FG5      -0.0688
     16 CAN         8.5641  -13.1986   34.3265 C.2         1 FG5      -0.0189
     17 CAO         7.4440  -12.3654   38.4883 C.3         1 FG5       0.0846
     18 NAQ         8.5080  -13.2962   38.3292 N.am        1 FG5      -0.2288
     19 OAR         1.7039  -14.7443   34.5817 O.3         1 FG5      -0.3308
     20 OAS         8.0202  -15.0863   35.4230 O.3         1 FG5      -0.2287
     21 CAU         2.5111  -14.4595   35.6503 C.ar        1 FG5       0.0691
     22 CAV         6.1514  -12.9163   38.0052 C.2         1 FG5       0.0618
     23 CAW         8.6658  -13.8964   35.5285 C.2         1 FG5       0.2522
     24 CAX         7.8325  -14.0033   33.4666 C.ar        1 FG5      -0.0094
     25 CAY         4.5645  -13.5585   36.5680 C.ar        1 FG5      -0.0477
     26 CAZ         7.5111  -15.1634   34.1726 C.ar        1 FG5       0.1269
     27 CBA         4.1316  -13.7970   37.8742 C.ar        1 FG5       0.0540
     28 SBC         9.4792  -13.3428   36.9531 S.o2        1 FG5       0.1039
     29 OXT         6.6219  -14.0931   41.9422 O.co2       1 FG5      -0.5663
     30 H1          5.1709  -12.4598   40.5617 H           1 FG5       0.0766
     31 H2          4.0581  -13.7949   40.5245 H           1 FG5       0.0766
     32 H3          1.2180  -16.1976   33.2111 H           1 FG5       0.0573
     33 H4          1.6981  -16.8348   34.7890 H           1 FG5       0.0573
     34 H5          2.9259  -16.1859   33.6660 H           1 FG5       0.0573
     35 H6          6.3990  -14.7556   30.5402 H           1 FG5       0.0527
     36 H7          5.8428  -16.7807   31.7624 H           1 FG5       0.0542
     37 H8          1.1099  -15.0633   37.1177 H           1 FG5       0.0453
     38 H9          7.6468  -12.9679   31.6270 H           1 FG5       0.0546
     39 H10         6.5532  -17.0463   34.0852 H           1 FG5       0.0562
     40 H11         2.4937  -14.5134   39.0217 H           1 FG5       0.0517
     41 H12         4.1253  -13.6836   34.5024 H           1 FG5       0.0403
     42 H13         6.3788  -12.6726   35.8612 H           1 FG5       0.0155
     43 H14         8.9433  -12.2721   34.1212 H           1 FG5       0.0361
     44 H15         7.6770  -11.4367   37.9615 H           1 FG5       0.0685
     45 H16         7.3760  -12.1196   39.5487 H           1 FG5       0.0685
     46 H17         8.6513  -13.9616   39.0214 H           1 FG5       0.1706
@<TRIPOS>BOND
     1     1     3  ar
     2     4     1   1
     3     1    29  ar
     4     2     4   1
     5    22     2   1
     6     2    27   1
     7    19     5   1
     8    28     6   2
     9    28     7   2
    10     9     8  ar
    11    11     8  ar
    12    12     9  ar
    13    13    10  ar
    14    21    10  ar
    15    24    11  ar
    16    26    12  ar
    17    27    13  ar
    18    14    21  ar
    19    25    14  ar
    20    22    15   2
    21    15    25   1
    22    23    16   2
    23    16    24   1
    24    18    17   1
    25    17    22   1
    26    28    18  am
    27    21    19   1
    28    23    20   1
    29    20    26   1
    30    23    28   1
    31    24    26  ar
    32    25    27  ar
    33     4    30   1
    34     4    31   1
    35     5    32   1
    36     5    33   1
    37     5    34   1
    38     8    35   1
    39     9    36   1
    40    10    37   1
    41    11    38   1
    42    12    39   1
    43    13    40   1
    44    14    41   1
    45    15    42   1
    46    16    43   1
    47    17    44   1
    48    17    45   1
    49    18    46   1
@<TRIPOS>SUBSTRUCTURE
     1  FG5      1

