@<TRIPOS>MOLECULE
3ivg_ligand_062
    46    49
SMALL
GAST_HUCK
****
This file was generated by PARSER (from files_GN.cpp)

@<TRIPOS>ATOM
      1 C           4.1271  -15.9033   37.4444 C.2         1 FG5       0.0635
      2 N           3.9132  -16.0334   34.9798 N.pl3       1 FG5      -0.2501
      3 O           5.2381  -16.6836   37.4184 O.co2       1 FG5      -0.5663
      4 CA          3.4716  -15.4179   36.2130 C.3         1 FG5       0.1031
      5 CAA         1.5444  -20.9732   31.9148 C.3         1 FG5       0.0567
      6 OAC         4.7204  -12.1929   36.8749 O.2         1 FG5      -0.1460
      7 OAD         6.7019  -11.1835   35.5481 O.2         1 FG5      -0.1460
      8 CAF        10.5408  -14.7641   39.9636 C.ar        1 FG5      -0.0767
      9 CAG         9.6323  -14.3398   40.9597 C.ar        1 FG5      -0.0734
     10 CAH         1.3520  -18.3032   33.4338 C.ar        1 FG5      -0.0489
     11 CAI        10.2425  -14.5802   38.5999 C.ar        1 FG5      -0.0712
     12 CAJ         8.4051  -13.7433   40.6031 C.ar        1 FG5      -0.0310
     13 CAK         1.8759  -17.4086   34.3925 C.ar        1 FG5      -0.0524
     14 CAL         3.4397  -18.2047   32.1689 C.ar        1 FG5      -0.0541
     15 CAM         5.1319  -16.6047   33.1812 C.2         1 FG5      -0.0688
     16 CAN         8.4566  -13.6619   37.0329 C.2         1 FG5      -0.0189
     17 CAO         6.2042  -14.9170   34.7474 C.3         1 FG5       0.0846
     18 NAQ         5.7807  -13.5592   34.8214 N.am        1 FG5      -0.2288
     19 OAR         1.6363  -19.6230   31.4233 O.3         1 FG5      -0.3308
     20 OAS         7.0212  -13.0368   38.6490 O.3         1 FG5      -0.2287
     21 CAU         2.1428  -18.7349   32.3417 C.ar        1 FG5       0.0691
     22 CAV         5.0974  -15.8164   34.3350 C.2         1 FG5       0.0618
     23 CAW         7.2177  -13.0899   37.3083 C.2         1 FG5       0.2522
     24 CAX         9.0203  -13.9758   38.2578 C.ar        1 FG5      -0.0094
     25 CAY         3.9322  -17.2901   33.1176 C.ar        1 FG5      -0.0477
     26 CAZ         8.1136  -13.5696   39.2400 C.ar        1 FG5       0.1269
     27 CBA         3.1833  -16.9019   34.2312 C.ar        1 FG5       0.0540
     28 SBC         6.0805  -12.5285   36.1255 S.o2        1 FG5       0.1039
     29 OXT         3.4004  -15.9241   38.5875 O.co2       1 FG5      -0.5663
     30 H1          3.6183  -14.3364   36.1534 H           1 FG5       0.0766
     31 H2          2.3977  -15.5545   36.3449 H           1 FG5       0.0766
     32 H3          1.1602  -21.6009   31.1104 H           1 FG5       0.0573
     33 H4          0.8553  -21.0498   32.7578 H           1 FG5       0.0573
     34 H5          2.5243  -21.3552   32.2104 H           1 FG5       0.0573
     35 H6         11.4272  -15.2019   40.2362 H           1 FG5       0.0527
     36 H7          9.8685  -14.4623   41.9466 H           1 FG5       0.0542
     37 H8          0.3938  -18.6487   33.5414 H           1 FG5       0.0453
     38 H9         10.8975  -14.8804   37.8723 H           1 FG5       0.0546
     39 H10         7.7452  -13.4340   41.3183 H           1 FG5       0.0562
     40 H11         1.2944  -17.1368   35.1835 H           1 FG5       0.0517
     41 H12         4.0070  -18.4839   31.3626 H           1 FG5       0.0403
     42 H13         5.8915  -16.6623   32.4967 H           1 FG5       0.0155
     43 H14         8.8660  -13.8241   36.1134 H           1 FG5       0.0361
     44 H15         6.5890  -15.2770   35.6994 H           1 FG5       0.0685
     45 H16         7.0231  -14.9505   34.0244 H           1 FG5       0.0685
     46 H17         5.4365  -13.1535   34.0091 H           1 FG5       0.1706
@<TRIPOS>BOND
     1     1     3  ar
     2     4     1   1
     3     1    29  ar
     4     2     4   1
     5    22     2   1
     6     2    27   1
     7    19     5   1
     8    28     6   2
     9    28     7   2
    10     9     8  ar
    11    11     8  ar
    12    12     9  ar
    13    13    10  ar
    14    21    10  ar
    15    24    11  ar
    16    26    12  ar
    17    27    13  ar
    18    14    21  ar
    19    25    14  ar
    20    22    15   2
    21    15    25   1
    22    23    16   2
    23    16    24   1
    24    18    17   1
    25    17    22   1
    26    28    18  am
    27    21    19   1
    28    23    20   1
    29    20    26   1
    30    23    28   1
    31    24    26  ar
    32    25    27  ar
    33     4    30   1
    34     4    31   1
    35     5    32   1
    36     5    33   1
    37     5    34   1
    38     8    35   1
    39     9    36   1
    40    10    37   1
    41    11    38   1
    42    12    39   1
    43    13    40   1
    44    14    41   1
    45    15    42   1
    46    16    43   1
    47    17    44   1
    48    17    45   1
    49    18    46   1
@<TRIPOS>SUBSTRUCTURE
     1  FG5      1

