@<TRIPOS>MOLECULE
3ivg_ligand_086
    46    49
SMALL
GAST_HUCK
****
This file was generated by PARSER (from files_GN.cpp)

@<TRIPOS>ATOM
      1 C           5.1939  -15.8725   36.1401 C.2         1 FG5       0.0635
      2 N           4.0004  -14.8414   37.9929 N.pl3       1 FG5      -0.2501
      3 O           5.0566  -14.9793   35.1364 O.co2       1 FG5      -0.5663
      4 CA          4.1420  -16.0113   37.1611 C.3         1 FG5       0.1031
      5 CAA        -0.3265  -10.9891   40.5688 C.3         1 FG5       0.0567
      6 OAC         7.8351  -14.4485   36.3932 O.2         1 FG5      -0.1460
      7 OAD         9.7467  -14.4191   38.1355 O.2         1 FG5      -0.1460
      8 CAF         9.4489   -7.9702   35.4142 C.ar        1 FG5      -0.0767
      9 CAG        10.1558   -7.8291   36.6301 C.ar        1 FG5      -0.0734
     10 CAH         0.5955  -13.2235   37.9016 C.ar        1 FG5      -0.0489
     11 CAI         8.7690   -9.1696   35.1109 C.ar        1 FG5      -0.0712
     12 CAJ        10.1929   -8.8882   37.5590 C.ar        1 FG5      -0.0310
     13 CAK         1.5909  -14.1538   37.5210 C.ar        1 FG5      -0.0524
     14 CAL         2.1467  -12.1562   39.4499 C.ar        1 FG5      -0.0541
     15 CAM         4.3986  -13.2595   39.5308 C.2         1 FG5      -0.0688
     16 CAN         8.2851  -11.4952   36.0427 C.2         1 FG5      -0.0189
     17 CAO         6.3026  -14.8335   39.1749 C.3         1 FG5       0.0846
     18 NAQ         7.2675  -13.7975   38.9829 N.am        1 FG5      -0.2288
     19 OAR        -0.1437  -11.3323   39.1818 O.3         1 FG5      -0.3308
     20 OAS         9.4392  -11.2311   37.9524 O.3         1 FG5      -0.2287
     21 CAU         0.8567  -12.2289   38.8771 C.ar        1 FG5       0.0691
     22 CAV         4.9417  -14.3484   38.8516 C.2         1 FG5       0.0618
     23 CAW         8.6919  -12.1001   37.2326 C.2         1 FG5       0.2522
     24 CAX         8.8192  -10.2165   36.0472 C.ar        1 FG5      -0.0094
     25 CAY         3.1117  -13.0992   39.0689 C.ar        1 FG5      -0.0477
     26 CAZ         9.5206  -10.0804   37.2456 C.ar        1 FG5       0.1269
     27 CBA         2.8694  -14.0917   38.1192 C.ar        1 FG5       0.0540
     28 SBC         8.3746  -13.7339   37.7109 S.o2        1 FG5       0.1039
     29 OXT         6.3076  -16.6399   36.1788 O.co2       1 FG5      -0.5663
     30 H1          4.3670  -16.8626   37.8115 H           1 FG5       0.0766
     31 H2          3.2208  -16.2520   36.6315 H           1 FG5       0.0766
     32 H3         -1.2382  -10.3900   40.6610 H           1 FG5       0.0573
     33 H4          0.5073  -10.3924   40.9396 H           1 FG5       0.0573
     34 H5         -0.4422  -11.8794   41.1901 H           1 FG5       0.0573
     35 H6          9.4364   -7.2005   34.7462 H           1 FG5       0.0527
     36 H7         10.6477   -6.9570   36.8354 H           1 FG5       0.0542
     37 H8         -0.3272  -13.2736   37.4648 H           1 FG5       0.0453
     38 H9          8.2628   -9.2762   34.2294 H           1 FG5       0.0546
     39 H10        10.7027   -8.7987   38.4391 H           1 FG5       0.0562
     40 H11         1.3706  -14.8641   36.8210 H           1 FG5       0.0517
     41 H12         2.3856  -11.4438   40.1373 H           1 FG5       0.0403
     42 H13         4.8487  -12.6981   40.2572 H           1 FG5       0.0155
     43 H14         7.7265  -11.9131   35.2952 H           1 FG5       0.0361
     44 H15         6.3212  -15.1244   40.2223 H           1 FG5       0.0685
     45 H16         6.5570  -15.7162   38.5792 H           1 FG5       0.0685
     46 H17         7.2507  -13.0563   39.6093 H           1 FG5       0.1706
@<TRIPOS>BOND
     1     1     3  ar
     2     4     1   1
     3     1    29  ar
     4     2     4   1
     5    22     2   1
     6     2    27   1
     7    19     5   1
     8    28     6   2
     9    28     7   2
    10     9     8  ar
    11    11     8  ar
    12    12     9  ar
    13    13    10  ar
    14    21    10  ar
    15    24    11  ar
    16    26    12  ar
    17    27    13  ar
    18    14    21  ar
    19    25    14  ar
    20    22    15   2
    21    15    25   1
    22    23    16   2
    23    16    24   1
    24    18    17   1
    25    17    22   1
    26    28    18  am
    27    21    19   1
    28    23    20   1
    29    20    26   1
    30    23    28   1
    31    24    26  ar
    32    25    27  ar
    33     4    30   1
    34     4    31   1
    35     5    32   1
    36     5    33   1
    37     5    34   1
    38     8    35   1
    39     9    36   1
    40    10    37   1
    41    11    38   1
    42    12    39   1
    43    13    40   1
    44    14    41   1
    45    15    42   1
    46    16    43   1
    47    17    44   1
    48    17    45   1
    49    18    46   1
@<TRIPOS>SUBSTRUCTURE
     1  FG5      1

