@<TRIPOS>MOLECULE
3ivg_ligand_026
    46    49
SMALL
GAST_HUCK
****
This file was generated by PARSER (from files_GN.cpp)

@<TRIPOS>ATOM
      1 C           7.0577  -13.9882   35.2332 C.2         1 FG5       0.0635
      2 N           5.1732  -13.9849   36.7396 N.pl3       1 FG5      -0.2501
      3 O           7.1840  -12.6904   34.8817 O.co2       1 FG5      -0.5663
      4 CA          5.7313  -14.5495   35.5365 C.3         1 FG5       0.1031
      5 CAA         6.7008  -15.3927   42.7841 C.3         1 FG5       0.0567
      6 OAC         0.3632  -13.0289   36.3439 O.2         1 FG5      -0.1460
      7 OAD         0.1391  -10.9207   34.8649 O.2         1 FG5      -0.1460
      8 CAF        -1.6484   -8.4642   41.0789 C.ar        1 FG5      -0.0767
      9 CAG        -0.5721   -9.0768   41.7628 C.ar        1 FG5      -0.0734
     10 CAH         7.0421  -14.9153   39.8644 C.ar        1 FG5      -0.0489
     11 CAI        -1.8305   -8.6763   39.6964 C.ar        1 FG5      -0.0712
     12 CAJ         0.3341   -9.9063   41.0692 C.ar        1 FG5      -0.0310
     13 CAK         6.7668  -14.9039   38.4788 C.ar        1 FG5      -0.0524
     14 CAL         5.0842  -13.5212   40.2844 C.ar        1 FG5      -0.0541
     15 CAM         3.8720  -12.8553   38.1657 C.2         1 FG5      -0.0688
     16 CAN        -0.8302   -9.8966   37.6922 C.2         1 FG5      -0.0189
     17 CAO         3.3219  -12.5952   35.6825 C.3         1 FG5       0.0846
     18 NAQ         2.5188  -11.4651   36.0191 N.am        1 FG5      -0.2288
     19 OAR         6.4701  -14.1441   42.1129 O.3         1 FG5      -0.3308
     20 OAS         0.8708  -10.8433   38.8169 O.3         1 FG5      -0.2287
     21 CAU         6.1965  -14.2349   40.7746 C.ar        1 FG5       0.0691
     22 CAV         4.1014  -13.1471   36.8194 C.2         1 FG5       0.0618
     23 CAW         0.2871  -10.7226   37.5981 C.2         1 FG5       0.2522
     24 CAX        -0.9172   -9.5029   39.0168 C.ar        1 FG5      -0.0094
     25 CAY         4.8412  -13.5078   38.8994 C.ar        1 FG5      -0.0477
     26 CAZ         0.1470  -10.1047   39.6913 C.ar        1 FG5       0.1269
     27 CBA         5.6510  -14.1905   37.9958 C.ar        1 FG5       0.0540
     28 SBC         0.8367  -11.5193   36.1627 S.o2        1 FG5       0.1039
     29 OXT         8.1577  -14.7720   35.2466 O.co2       1 FG5      -0.5663
     30 H1          5.7964  -15.6349   35.6420 H           1 FG5       0.0766
     31 H2          5.0994  -14.3608   34.6660 H           1 FG5       0.0766
     32 H3          6.7770  -15.1936   43.8531 H           1 FG5       0.0573
     33 H4          7.6364  -15.8465   42.4635 H           1 FG5       0.0573
     34 H5          5.8824  -16.0970   42.6217 H           1 FG5       0.0573
     35 H6         -2.2990   -7.8641   41.5880 H           1 FG5       0.0527
     36 H7         -0.4488   -8.9186   42.7635 H           1 FG5       0.0542
     37 H8          7.8657  -15.4144   40.1997 H           1 FG5       0.0453
     38 H9         -2.6058   -8.2379   39.1965 H           1 FG5       0.0546
     39 H10         1.1112  -10.3564   41.5566 H           1 FG5       0.0562
     40 H11         7.3963  -15.3849   37.8379 H           1 FG5       0.0517
     41 H12         4.4695  -13.0058   40.9172 H           1 FG5       0.0403
     42 H13         3.1465  -12.2525   38.5485 H           1 FG5       0.0155
     43 H14        -1.4670   -9.6371   36.9372 H           1 FG5       0.0361
     44 H15         4.0178  -12.2458   34.9247 H           1 FG5       0.0685
     45 H16         2.7222  -13.3984   35.2390 H           1 FG5       0.0685
     46 H17         2.9781  -10.6649   36.3193 H           1 FG5       0.1706
@<TRIPOS>BOND
     1     1     3  ar
     2     4     1   1
     3     1    29  ar
     4     2     4   1
     5    22     2   1
     6     2    27   1
     7    19     5   1
     8    28     6   2
     9    28     7   2
    10     9     8  ar
    11    11     8  ar
    12    12     9  ar
    13    13    10  ar
    14    21    10  ar
    15    24    11  ar
    16    26    12  ar
    17    27    13  ar
    18    14    21  ar
    19    25    14  ar
    20    22    15   2
    21    15    25   1
    22    23    16   2
    23    16    24   1
    24    18    17   1
    25    17    22   1
    26    28    18  am
    27    21    19   1
    28    23    20   1
    29    20    26   1
    30    23    28   1
    31    24    26  ar
    32    25    27  ar
    33     4    30   1
    34     4    31   1
    35     5    32   1
    36     5    33   1
    37     5    34   1
    38     8    35   1
    39     9    36   1
    40    10    37   1
    41    11    38   1
    42    12    39   1
    43    13    40   1
    44    14    41   1
    45    15    42   1
    46    16    43   1
    47    17    44   1
    48    17    45   1
    49    18    46   1
@<TRIPOS>SUBSTRUCTURE
     1  FG5      1

