@<TRIPOS>MOLECULE
3ivg_ligand_092
    46    49
SMALL
GAST_HUCK
****
This file was generated by PARSER (from files_GN.cpp)

@<TRIPOS>ATOM
      1 C           1.6909  -14.3489   37.2386 C.2         1 FG5       0.0635
      2 N           3.9814  -13.6182   36.8961 N.pl3       1 FG5      -0.2501
      3 O           1.0240  -14.2431   36.0565 O.co2       1 FG5      -0.5663
      4 CA          2.7346  -13.3636   37.5868 C.3         1 FG5       0.1031
      5 CAA         6.9573  -10.9515   31.9669 C.3         1 FG5       0.0567
      6 OAC         6.2714  -14.4263   41.4508 O.2         1 FG5      -0.1460
      7 OAD         5.2318  -12.9980   39.6009 O.2         1 FG5      -0.1460
      8 CAF        12.0685  -14.0266   37.6221 C.ar        1 FG5      -0.0767
      9 CAG        11.5324  -12.9895   36.8264 C.ar        1 FG5      -0.0734
     10 CAH         4.9813  -10.9231   34.4884 C.ar        1 FG5      -0.0489
     11 CAI        11.2637  -14.6829   38.5789 C.ar        1 FG5      -0.0712
     12 CAJ        10.1843  -12.5946   36.9788 C.ar        1 FG5      -0.0310
     13 CAK         4.1304  -11.5988   35.3864 C.ar        1 FG5      -0.0524
     14 CAL         6.6501  -12.7020   34.6953 C.ar        1 FG5      -0.0541
     15 CAM         5.9471  -14.5337   36.2984 C.2         1 FG5      -0.0688
     16 CAN         8.9113  -14.7249   39.5484 C.2         1 FG5      -0.0189
     17 CAO         4.7148  -15.7526   38.1315 C.3         1 FG5       0.0846
     18 NAQ         5.6339  -15.6707   39.2249 N.am        1 FG5      -0.2288
     19 OAR         7.1165  -10.7522   33.3804 O.3         1 FG5      -0.3308
     20 OAS         8.0948  -13.0694   38.2551 O.3         1 FG5      -0.2287
     21 CAU         6.2421  -11.4672   34.1444 C.ar        1 FG5       0.0691
     22 CAV         4.8314  -14.6659   37.1211 C.2         1 FG5       0.0618
     23 CAW         7.7951  -13.9567   39.2340 C.2         1 FG5       0.2522
     24 CAX         9.9294  -14.2747   38.7247 C.ar        1 FG5      -0.0094
     25 CAY         5.7873  -13.3536   35.5888 C.ar        1 FG5      -0.0477
     26 CAZ         9.3985  -13.2481   37.9406 C.ar        1 FG5       0.1269
     27 CBA         4.5535  -12.8175   35.9633 C.ar        1 FG5       0.0540
     28 SBC         6.2101  -14.2223   39.8696 S.o2        1 FG5       0.1039
     29 OXT         1.5953  -15.5049   37.9462 O.co2       1 FG5      -0.5663
     30 H1          2.9179  -13.3737   38.6692 H           1 FG5       0.0766
     31 H2          2.3314  -12.3645   37.3527 H           1 FG5       0.0766
     32 H3          7.6792  -10.3118   31.4606 H           1 FG5       0.0573
     33 H4          5.9558  -10.6704   31.6301 H           1 FG5       0.0573
     34 H5          7.1644  -11.9883   31.6899 H           1 FG5       0.0573
     35 H6         13.0392  -14.3060   37.5021 H           1 FG5       0.0527
     36 H7         12.1186  -12.5269   36.1328 H           1 FG5       0.0542
     37 H8          4.6948  -10.0244   34.1056 H           1 FG5       0.0453
     38 H9         11.6456  -15.4365   39.1559 H           1 FG5       0.0546
     39 H10         9.7853  -11.8526   36.3967 H           1 FG5       0.0562
     40 H11         3.2307  -11.1880   35.6333 H           1 FG5       0.0517
     41 H12         7.5727  -13.0923   34.4816 H           1 FG5       0.0403
     42 H13         6.7634  -15.1514   36.2725 H           1 FG5       0.0155
     43 H14         8.9597  -15.4932   40.2184 H           1 FG5       0.0361
     44 H15         3.7102  -15.7675   38.5730 H           1 FG5       0.0685
     45 H16         4.8679  -16.7208   37.6332 H           1 FG5       0.0685
     46 H17         5.6482  -16.4448   39.8076 H           1 FG5       0.1706
@<TRIPOS>BOND
     1     1     3  ar
     2     4     1   1
     3     1    29  ar
     4     2     4   1
     5    22     2   1
     6     2    27   1
     7    19     5   1
     8    28     6   2
     9    28     7   2
    10     9     8  ar
    11    11     8  ar
    12    12     9  ar
    13    13    10  ar
    14    21    10  ar
    15    24    11  ar
    16    26    12  ar
    17    27    13  ar
    18    14    21  ar
    19    25    14  ar
    20    22    15   2
    21    15    25   1
    22    23    16   2
    23    16    24   1
    24    18    17   1
    25    17    22   1
    26    28    18  am
    27    21    19   1
    28    23    20   1
    29    20    26   1
    30    23    28   1
    31    24    26  ar
    32    25    27  ar
    33     4    30   1
    34     4    31   1
    35     5    32   1
    36     5    33   1
    37     5    34   1
    38     8    35   1
    39     9    36   1
    40    10    37   1
    41    11    38   1
    42    12    39   1
    43    13    40   1
    44    14    41   1
    45    15    42   1
    46    16    43   1
    47    17    44   1
    48    17    45   1
    49    18    46   1
@<TRIPOS>SUBSTRUCTURE
     1  FG5      1

