@<TRIPOS>MOLECULE
3ivg_ligand_048
    46    49
SMALL
GAST_HUCK
****
This file was generated by PARSER (from files_GN.cpp)

@<TRIPOS>ATOM
      1 C           2.7039  -14.2142   38.2664 C.2         1 FG5       0.0635
      2 N           1.4771  -12.2922   37.4495 N.pl3       1 FG5      -0.2501
      3 O           3.6609  -14.3836   39.2014 O.co2       1 FG5      -0.5663
      4 CA          2.7152  -13.0315   37.3960 C.3         1 FG5       0.1031
      5 CAA        -1.5509  -10.3303   42.5953 C.3         1 FG5       0.0567
      6 OAC         2.4303   -9.5738   35.9803 O.2         1 FG5      -0.1460
      7 OAD         2.8022   -9.1707   33.5754 O.2         1 FG5      -0.1460
      8 CAF         8.2340  -13.3108   34.1298 C.ar        1 FG5      -0.0767
      9 CAG         8.0154  -13.5282   35.5114 C.ar        1 FG5      -0.0734
     10 CAH         0.8563  -10.8064   40.8407 C.ar        1 FG5      -0.0489
     11 CAI         7.2955  -12.5899   33.3647 C.ar        1 FG5      -0.0712
     12 CAJ         6.8593  -13.0232   36.1363 C.ar        1 FG5      -0.0310
     13 CAK         1.5529  -11.5596   39.8611 C.ar        1 FG5      -0.0524
     14 CAL        -0.9273  -10.3413   39.2356 C.ar        1 FG5      -0.0541
     15 CAM        -0.4245  -11.2408   36.9157 C.2         1 FG5      -0.0688
     16 CAN         5.0451  -11.3857   33.5336 C.2         1 FG5      -0.0189
     17 CAO         0.7761  -12.3298   34.9697 C.3         1 FG5       0.0846
     18 NAQ         1.3023  -11.2532   34.1949 N.am        1 FG5      -0.2288
     19 OAR        -1.1073   -9.5346   41.4802 O.3         1 FG5      -0.3308
     20 OAS         4.7441  -11.7729   35.7201 O.3         1 FG5      -0.2287
     21 CAU        -0.3967  -10.2312   40.5393 C.ar        1 FG5       0.0691
     22 CAV         0.6265  -12.0156   36.4193 C.2         1 FG5       0.0618
     23 CAW         4.1944  -11.1993   34.6236 C.2         1 FG5       0.2522
     24 CAX         6.1393  -12.0991   33.9999 C.ar        1 FG5      -0.0094
     25 CAY        -0.1949  -11.0436   38.2623 C.ar        1 FG5      -0.0477
     26 CAZ         5.9239  -12.3166   35.3635 C.ar        1 FG5       0.1269
     27 CBA         1.0132  -11.6769   38.5647 C.ar        1 FG5       0.0540
     28 SBC         2.6739  -10.3620   34.6183 S.o2        1 FG5       0.1039
     29 OXT         1.7996  -15.2068   38.1011 O.co2       1 FG5      -0.5663
     30 H1          2.9469  -13.3796   36.3899 H           1 FG5       0.0766
     31 H2          3.5261  -12.3554   37.6905 H           1 FG5       0.0766
     32 H3         -2.1873   -9.7072   43.2213 H           1 FG5       0.0573
     33 H4         -0.7066  -10.6644   43.2031 H           1 FG5       0.0573
     34 H5         -2.1335  -11.2002   42.2779 H           1 FG5       0.0573
     35 H6          9.0711  -13.6858   33.6807 H           1 FG5       0.0527
     36 H7          8.6972  -14.0608   36.0500 H           1 FG5       0.0542
     37 H8          1.2582  -10.7020   41.7717 H           1 FG5       0.0453
     38 H9          7.4439  -12.4326   32.3629 H           1 FG5       0.0546
     39 H10         6.6984  -13.1763   37.1329 H           1 FG5       0.0562
     40 H11         2.4534  -11.9825   40.1005 H           1 FG5       0.0517
     41 H12        -1.8213   -9.9114   38.9926 H           1 FG5       0.0403
     42 H13        -1.2013  -10.8448   36.3800 H           1 FG5       0.0155
     43 H14         4.8943  -11.0661   32.5732 H           1 FG5       0.0361
     44 H15         1.3958  -13.2133   34.8106 H           1 FG5       0.0685
     45 H16        -0.2042  -12.5739   34.5613 H           1 FG5       0.0685
     46 H17         1.0366  -11.2218   33.2566 H           1 FG5       0.1706
@<TRIPOS>BOND
     1     1     3  ar
     2     4     1   1
     3     1    29  ar
     4     2     4   1
     5    22     2   1
     6     2    27   1
     7    19     5   1
     8    28     6   2
     9    28     7   2
    10     9     8  ar
    11    11     8  ar
    12    12     9  ar
    13    13    10  ar
    14    21    10  ar
    15    24    11  ar
    16    26    12  ar
    17    27    13  ar
    18    14    21  ar
    19    25    14  ar
    20    22    15   2
    21    15    25   1
    22    23    16   2
    23    16    24   1
    24    18    17   1
    25    17    22   1
    26    28    18  am
    27    21    19   1
    28    23    20   1
    29    20    26   1
    30    23    28   1
    31    24    26  ar
    32    25    27  ar
    33     4    30   1
    34     4    31   1
    35     5    32   1
    36     5    33   1
    37     5    34   1
    38     8    35   1
    39     9    36   1
    40    10    37   1
    41    11    38   1
    42    12    39   1
    43    13    40   1
    44    14    41   1
    45    15    42   1
    46    16    43   1
    47    17    44   1
    48    17    45   1
    49    18    46   1
@<TRIPOS>SUBSTRUCTURE
     1  FG5      1

