@<TRIPOS>MOLECULE
3ivg_ligand_031
    46    49
SMALL
GAST_HUCK
****
This file was generated by PARSER (from files_GN.cpp)

@<TRIPOS>ATOM
      1 C           2.7866  -14.6265   37.4307 C.2         1 FG5       0.0635
      2 N           3.1199  -12.5156   36.2098 N.pl3       1 FG5      -0.2501
      3 O           2.6842  -15.3385   36.2834 O.co2       1 FG5      -0.5663
      4 CA          2.6766  -13.1565   37.4269 C.3         1 FG5       0.1031
      5 CAA         0.7781   -9.8804   31.0543 C.3         1 FG5       0.0567
      6 OAC         6.5400  -16.2536   36.4343 O.2         1 FG5      -0.1460
      7 OAD         8.0645  -15.6119   34.5079 O.2         1 FG5      -0.1460
      8 CAF         3.2254  -18.6553   30.7045 C.ar        1 FG5      -0.0767
      9 CAG         2.1376  -18.1666   31.4638 C.ar        1 FG5      -0.0734
     10 CAH         0.4574  -10.6199   34.3311 C.ar        1 FG5      -0.0489
     11 CAI         4.5532  -18.3612   31.0819 C.ar        1 FG5      -0.0712
     12 CAJ         2.3659  -17.3759   32.6100 C.ar        1 FG5      -0.0310
     13 CAK         0.9763  -11.4509   35.3514 C.ar        1 FG5      -0.0524
     14 CAL         2.6919  -10.3564   33.3788 C.ar        1 FG5      -0.0541
     15 CAM         4.4573  -11.6647   34.6235 C.2         1 FG5      -0.0688
     16 CAN         5.9234  -17.1096   32.8285 C.2         1 FG5      -0.0189
     17 CAO         5.5882  -13.2305   36.2505 C.3         1 FG5       0.0846
     18 NAQ         6.2538  -13.8677   35.1629 N.am        1 FG5      -0.2288
     19 OAR         0.7947   -9.2674   32.3570 O.3         1 FG5      -0.3308
     20 OAS         4.1640  -16.3396   34.0034 O.3         1 FG5      -0.2287
     21 CAU         1.3102  -10.0740   33.3408 C.ar        1 FG5       0.0691
     22 CAV         4.3996  -12.5103   35.7327 C.2         1 FG5       0.0618
     23 CAW         5.5170  -16.3445   33.9184 C.2         1 FG5       0.2522
     24 CAX         4.7653  -17.5728   32.2282 C.ar        1 FG5      -0.0094
     25 CAY         3.1806  -11.1927   34.3958 C.ar        1 FG5      -0.0477
     26 CAZ         3.6934  -17.0852   32.9770 C.ar        1 FG5       0.1269
     27 CBA         2.3594  -11.7429   35.3857 C.ar        1 FG5       0.0540
     28 SBC         6.5628  -15.5164   35.0237 S.o2        1 FG5       0.1039
     29 OXT         2.7541  -15.2921   38.6058 O.co2       1 FG5      -0.5663
     30 H1          3.2707  -12.7638   38.2512 H           1 FG5       0.0766
     31 H2          1.6356  -12.9119   37.6546 H           1 FG5       0.0766
     32 H3          0.3508   -9.1670   30.3503 H           1 FG5       0.0573
     33 H4          0.1604  -10.7828   31.0523 H           1 FG5       0.0573
     34 H5          1.7959  -10.1249   30.7273 H           1 FG5       0.0573
     35 H6          3.0459  -19.2198   29.8686 H           1 FG5       0.0527
     36 H7          1.1786  -18.3790   31.1784 H           1 FG5       0.0542
     37 H8         -0.5500  -10.4163   34.3011 H           1 FG5       0.0453
     38 H9          5.3417  -18.7153   30.5350 H           1 FG5       0.0546
     39 H10         1.5857  -17.0192   33.1653 H           1 FG5       0.0562
     40 H11         0.3399  -11.8332   36.0532 H           1 FG5       0.0517
     41 H12         3.3299   -9.9535   32.6801 H           1 FG5       0.0403
     42 H13         5.2830  -11.4618   34.0555 H           1 FG5       0.0155
     43 H14         6.8811  -17.2806   32.5243 H           1 FG5       0.0361
     44 H15         6.2785  -12.5011   36.6866 H           1 FG5       0.0685
     45 H16         5.3216  -13.9478   37.0283 H           1 FG5       0.0685
     46 H17         6.5861  -13.2975   34.4489 H           1 FG5       0.1706
@<TRIPOS>BOND
     1     1     3  ar
     2     4     1   1
     3     1    29  ar
     4     2     4   1
     5    22     2   1
     6     2    27   1
     7    19     5   1
     8    28     6   2
     9    28     7   2
    10     9     8  ar
    11    11     8  ar
    12    12     9  ar
    13    13    10  ar
    14    21    10  ar
    15    24    11  ar
    16    26    12  ar
    17    27    13  ar
    18    14    21  ar
    19    25    14  ar
    20    22    15   2
    21    15    25   1
    22    23    16   2
    23    16    24   1
    24    18    17   1
    25    17    22   1
    26    28    18  am
    27    21    19   1
    28    23    20   1
    29    20    26   1
    30    23    28   1
    31    24    26  ar
    32    25    27  ar
    33     4    30   1
    34     4    31   1
    35     5    32   1
    36     5    33   1
    37     5    34   1
    38     8    35   1
    39     9    36   1
    40    10    37   1
    41    11    38   1
    42    12    39   1
    43    13    40   1
    44    14    41   1
    45    15    42   1
    46    16    43   1
    47    17    44   1
    48    17    45   1
    49    18    46   1
@<TRIPOS>SUBSTRUCTURE
     1  FG5      1

