@<TRIPOS>MOLECULE
3ivg_ligand_060
    46    49
SMALL
GAST_HUCK
****
This file was generated by PARSER (from files_GN.cpp)

@<TRIPOS>ATOM
      1 C           5.8845  -16.0250   35.7350 C.2         1 FG5       0.0635
      2 N           4.5941  -14.1948   36.8153 N.pl3       1 FG5      -0.2501
      3 O           7.0471  -15.9341   35.0477 O.co2       1 FG5      -0.5663
      4 CA          4.8651  -14.9693   35.6130 C.3         1 FG5       0.1031
      5 CAA         6.6970  -15.3466   42.6614 C.3         1 FG5       0.0567
      6 OAC         3.2726   -9.4303   34.0662 O.2         1 FG5      -0.1460
      7 OAD         3.2017  -11.6825   32.9529 O.2         1 FG5      -0.1460
      8 CAF         9.8629  -10.8573   35.4219 C.ar        1 FG5      -0.0767
      9 CAG         9.7451  -12.2351   35.1204 C.ar        1 FG5      -0.0734
     10 CAH         6.7646  -14.7946   39.8523 C.ar        1 FG5      -0.0489
     11 CAI         8.7321  -10.0136   35.3616 C.ar        1 FG5      -0.0712
     12 CAJ         8.4955  -12.7829   34.7634 C.ar        1 FG5      -0.0310
     13 CAK         6.4196  -14.8387   38.4893 C.ar        1 FG5      -0.0524
     14 CAL         4.8164  -13.4058   40.3080 C.ar        1 FG5      -0.0541
     15 CAM         3.4487  -12.8921   38.2428 C.2         1 FG5      -0.0688
     16 CAN         6.2296  -10.0277   34.8584 C.2         1 FG5      -0.0189
     17 CAO         2.5736  -12.8931   35.8867 C.3         1 FG5       0.0846
     18 NAQ         2.7367  -11.5114   35.5863 N.am        1 FG5      -0.2288
     19 OAR         6.2513  -14.0870   42.1151 O.3         1 FG5      -0.3308
     20 OAS         6.0886  -12.2245   34.4185 O.3         1 FG5      -0.2287
     21 CAU         5.9392  -14.1226   40.7810 C.ar        1 FG5       0.0691
     22 CAV         3.5438  -13.3305   36.9210 C.2         1 FG5       0.0618
     23 CAW         5.3786  -11.0733   34.5126 C.2         1 FG5       0.2522
     24 CAX         7.4943  -10.5767   35.0029 C.ar        1 FG5      -0.0094
     25 CAY         4.4885  -13.4735   38.9406 C.ar        1 FG5      -0.0477
     26 CAZ         7.3767  -11.9365   34.7128 C.ar        1 FG5       0.1269
     27 CBA         5.2314  -14.2269   38.0271 C.ar        1 FG5       0.0540
     28 SBC         3.6636  -10.9558   34.2908 S.o2        1 FG5       0.1039
     29 OXT         5.7257  -17.0135   36.6448 O.co2       1 FG5      -0.5663
     30 H1          3.9500  -15.4869   35.3027 H           1 FG5       0.0766
     31 H2          5.1470  -14.2907   34.8077 H           1 FG5       0.0766
     32 H3          6.8410  -15.2221   43.7370 H           1 FG5       0.0573
     33 H4          7.6550  -15.6496   42.2251 H           1 FG5       0.0573
     34 H5          5.9599  -16.1426   42.5070 H           1 FG5       0.0573
     35 H6         10.7733  -10.4650   35.6716 H           1 FG5       0.0527
     36 H7         10.5735  -12.8361   35.1535 H           1 FG5       0.0542
     37 H8          7.6133  -15.2652   40.1703 H           1 FG5       0.0453
     38 H9          8.8032   -9.0145   35.5708 H           1 FG5       0.0546
     39 H10         8.4076  -13.7778   34.5453 H           1 FG5       0.0562
     40 H11         7.0557  -15.3023   37.8487 H           1 FG5       0.0517
     41 H12         4.2281  -12.8729   40.9502 H           1 FG5       0.0403
     42 H13         2.7344  -12.2700   38.6336 H           1 FG5       0.0155
     43 H14         5.9725   -9.0448   34.9988 H           1 FG5       0.0361
     44 H15         2.6608  -13.4893   34.9790 H           1 FG5       0.0685
     45 H16         1.5647  -13.0347   36.2779 H           1 FG5       0.0685
     46 H17         2.5002  -10.8712   36.2744 H           1 FG5       0.1706
@<TRIPOS>BOND
     1     1     3  ar
     2     4     1   1
     3     1    29  ar
     4     2     4   1
     5    22     2   1
     6     2    27   1
     7    19     5   1
     8    28     6   2
     9    28     7   2
    10     9     8  ar
    11    11     8  ar
    12    12     9  ar
    13    13    10  ar
    14    21    10  ar
    15    24    11  ar
    16    26    12  ar
    17    27    13  ar
    18    14    21  ar
    19    25    14  ar
    20    22    15   2
    21    15    25   1
    22    23    16   2
    23    16    24   1
    24    18    17   1
    25    17    22   1
    26    28    18  am
    27    21    19   1
    28    23    20   1
    29    20    26   1
    30    23    28   1
    31    24    26  ar
    32    25    27  ar
    33     4    30   1
    34     4    31   1
    35     5    32   1
    36     5    33   1
    37     5    34   1
    38     8    35   1
    39     9    36   1
    40    10    37   1
    41    11    38   1
    42    12    39   1
    43    13    40   1
    44    14    41   1
    45    15    42   1
    46    16    43   1
    47    17    44   1
    48    17    45   1
    49    18    46   1
@<TRIPOS>SUBSTRUCTURE
     1  FG5      1

