@<TRIPOS>MOLECULE
3ivg_ligand_090
    46    49
SMALL
GAST_HUCK
****
This file was generated by PARSER (from files_GN.cpp)

@<TRIPOS>ATOM
      1 C           2.4097  -13.0899   35.7467 C.2         1 FG5       0.0635
      2 N           4.6849  -12.7201   36.4628 N.pl3       1 FG5      -0.2501
      3 O           1.9720  -13.3067   34.4851 O.co2       1 FG5      -0.5663
      4 CA          3.4686  -12.0966   36.0021 C.3         1 FG5       0.1031
      5 CAA         7.2143  -15.4008   41.6168 C.3         1 FG5       0.0567
      6 OAC         7.2654  -16.3139   34.9780 O.2         1 FG5      -0.1460
      7 OAD         6.9527  -16.3900   32.4568 O.2         1 FG5      -0.1460
      8 CAF         0.3163  -16.9159   34.7995 C.ar        1 FG5      -0.0767
      9 CAG         0.4086  -17.5260   33.5258 C.ar        1 FG5      -0.0734
     10 CAH         4.8359  -13.2534   40.1793 C.ar        1 FG5      -0.0489
     11 CAI         1.4567  -16.3776   35.4253 C.ar        1 FG5      -0.0712
     12 CAJ         1.6470  -17.5695   32.8453 C.ar        1 FG5      -0.0310
     13 CAK         4.2457  -12.8590   38.9565 C.ar        1 FG5      -0.0524
     14 CAL         6.8905  -13.8814   39.0261 C.ar        1 FG5      -0.0541
     15 CAM         6.7652  -13.5403   36.5314 C.2         1 FG5      -0.0688
     16 CAN         3.9374  -15.9322   35.0409 C.2         1 FG5      -0.0189
     17 CAO         5.8663  -13.0370   34.2140 C.3         1 FG5       0.0846
     18 NAQ         6.6836  -14.0469   33.6244 N.am        1 FG5      -0.2288
     19 OAR         6.7041  -14.0614   41.4472 O.3         1 FG5      -0.3308
     20 OAS         4.0353  -16.8444   32.9895 O.3         1 FG5      -0.2287
     21 CAU         6.1491  -13.7764   40.2248 C.ar        1 FG5       0.0691
     22 CAV         5.7475  -13.0885   35.6934 C.2         1 FG5       0.0618
     23 CAW         4.7490  -16.1922   33.9405 C.2         1 FG5       0.2522
     24 CAX         2.6819  -16.4132   34.7232 C.ar        1 FG5      -0.0094
     25 CAY         6.2811  -13.5055   37.8202 C.ar        1 FG5      -0.0477
     26 CAZ         2.7664  -16.9848   33.4552 C.ar        1 FG5       0.1269
     27 CBA         4.9819  -12.9973   37.7596 C.ar        1 FG5       0.0540
     28 SBC         6.4098  -15.7114   33.7871 S.o2        1 FG5       0.1039
     29 OXT         1.6127  -13.5128   36.7525 O.co2       1 FG5      -0.5663
     30 H1          3.1070  -11.3770   36.7391 H           1 FG5       0.0766
     31 H2          3.6583  -11.5170   35.0926 H           1 FG5       0.0766
     32 H3          7.5500  -15.5126   42.6468 H           1 FG5       0.0573
     33 H4          8.0653  -15.5822   40.9558 H           1 FG5       0.0573
     34 H5          6.4453  -16.1538   41.4316 H           1 FG5       0.0573
     35 H6         -0.5931  -16.8659   35.2668 H           1 FG5       0.0527
     36 H7         -0.4216  -17.9354   33.0953 H           1 FG5       0.0542
     37 H8          4.3050  -13.1439   41.0433 H           1 FG5       0.0453
     38 H9          1.4070  -15.9538   36.3558 H           1 FG5       0.0546
     39 H10         1.7205  -18.0051   31.9221 H           1 FG5       0.0562
     40 H11         3.2947  -12.4830   38.9482 H           1 FG5       0.0517
     41 H12         7.8552  -14.2238   39.0343 H           1 FG5       0.0403
     42 H13         7.6954  -13.8665   36.2530 H           1 FG5       0.0155
     43 H14         4.2062  -15.4531   35.9004 H           1 FG5       0.0361
     44 H15         4.8783  -13.1056   33.7683 H           1 FG5       0.0685
     45 H16         6.2869  -12.0648   33.9465 H           1 FG5       0.0685
     46 H17         7.2842  -13.7719   32.9137 H           1 FG5       0.1706
@<TRIPOS>BOND
     1     1     3  ar
     2     4     1   1
     3     1    29  ar
     4     2     4   1
     5    22     2   1
     6     2    27   1
     7    19     5   1
     8    28     6   2
     9    28     7   2
    10     9     8  ar
    11    11     8  ar
    12    12     9  ar
    13    13    10  ar
    14    21    10  ar
    15    24    11  ar
    16    26    12  ar
    17    27    13  ar
    18    14    21  ar
    19    25    14  ar
    20    22    15   2
    21    15    25   1
    22    23    16   2
    23    16    24   1
    24    18    17   1
    25    17    22   1
    26    28    18  am
    27    21    19   1
    28    23    20   1
    29    20    26   1
    30    23    28   1
    31    24    26  ar
    32    25    27  ar
    33     4    30   1
    34     4    31   1
    35     5    32   1
    36     5    33   1
    37     5    34   1
    38     8    35   1
    39     9    36   1
    40    10    37   1
    41    11    38   1
    42    12    39   1
    43    13    40   1
    44    14    41   1
    45    15    42   1
    46    16    43   1
    47    17    44   1
    48    17    45   1
    49    18    46   1
@<TRIPOS>SUBSTRUCTURE
     1  FG5      1

