@<TRIPOS>MOLECULE
3ivg_ligand_068
    46    49
SMALL
GAST_HUCK
****
This file was generated by PARSER (from files_GN.cpp)

@<TRIPOS>ATOM
      1 C           9.1786  -11.3575   36.2900 C.2         1 FG5       0.0635
      2 N           7.5705  -13.0072   36.9802 N.pl3       1 FG5      -0.2501
      3 O          10.3224  -10.9639   36.8897 O.co2       1 FG5      -0.5663
      4 CA          8.7970  -12.7767   36.2533 C.3         1 FG5       0.1031
      5 CAA         6.5463  -15.5319   42.7010 C.3         1 FG5       0.0567
      6 OAC         6.9944  -15.7721   35.5601 O.2         1 FG5      -0.1460
      7 OAD         7.6369  -15.6985   33.1640 O.2         1 FG5      -0.1460
      8 CAF         1.3760  -18.4442   32.2916 C.ar        1 FG5      -0.0767
      9 CAG         0.7559  -17.6539   33.2862 C.ar        1 FG5      -0.0734
     10 CAH         8.1098  -13.7773   40.6139 C.ar        1 FG5      -0.0489
     11 CAI         2.7585  -18.3210   32.0406 C.ar        1 FG5      -0.0712
     12 CAJ         1.5103  -16.7284   34.0397 C.ar        1 FG5      -0.0310
     13 CAK         8.4884  -13.4564   39.2929 C.ar        1 FG5      -0.0524
     14 CAL         5.7538  -13.7862   39.9611 C.ar        1 FG5      -0.0541
     15 CAM         5.4055  -13.2664   37.5087 C.2         1 FG5      -0.0688
     16 CAN         4.8345  -17.0433   32.7838 C.2         1 FG5      -0.0189
     17 CAO         5.8585  -12.7229   35.0815 C.3         1 FG5       0.0846
     18 NAQ         6.4544  -13.5630   34.0990 N.am        1 FG5      -0.2288
     19 OAR         6.3608  -14.1817   42.2430 O.3         1 FG5      -0.3308
     20 OAS         3.8055  -15.7994   34.3494 O.3         1 FG5      -0.2287
     21 CAU         6.7456  -13.9569   40.9484 C.ar        1 FG5       0.0691
     22 CAV         6.3013  -12.9871   36.4751 C.2         1 FG5       0.0618
     23 CAW         4.9948  -16.0494   33.7468 C.2         1 FG5       0.2522
     24 CAX         3.4951  -17.3954   32.7999 C.ar        1 FG5      -0.0094
     25 CAY         6.1540  -13.4721   38.6501 C.ar        1 FG5      -0.0477
     26 CAZ         2.8846  -16.6118   33.7800 C.ar        1 FG5       0.1269
     27 CBA         7.4950  -13.3075   38.3035 C.ar        1 FG5       0.0540
     28 SBC         6.4753  -15.2486   34.1525 S.o2        1 FG5       0.1039
     29 OXT         8.4392  -10.4327   35.6407 O.co2       1 FG5      -0.5663
     30 H1          9.6054  -13.3848   36.6642 H           1 FG5       0.0766
     31 H2          8.7046  -13.0823   35.2121 H           1 FG5       0.0766
     32 H3          6.0734  -15.6208   43.6790 H           1 FG5       0.0573
     33 H4          7.6080  -15.7583   42.8148 H           1 FG5       0.0573
     34 H5          6.0879  -16.2623   42.0287 H           1 FG5       0.0573
     35 H6          0.8184  -19.1072   31.7485 H           1 FG5       0.0527
     36 H7         -0.2481  -17.7494   33.4602 H           1 FG5       0.0542
     37 H8          8.8266  -13.8692   41.3373 H           1 FG5       0.0453
     38 H9          3.2112  -18.8846   31.3189 H           1 FG5       0.0546
     39 H10         1.0694  -16.1496   34.7552 H           1 FG5       0.0562
     40 H11         9.4740  -13.3225   39.0638 H           1 FG5       0.0517
     41 H12         4.7632  -13.8842   40.1939 H           1 FG5       0.0403
     42 H13         4.3852  -13.3262   37.4415 H           1 FG5       0.0155
     43 H14         5.5583  -17.4334   32.1756 H           1 FG5       0.0361
     44 H15         4.7728  -12.8117   34.9866 H           1 FG5       0.0685
     45 H16         6.1174  -11.6896   34.8397 H           1 FG5       0.0685
     46 H17         6.6999  -13.1508   33.2585 H           1 FG5       0.1706
@<TRIPOS>BOND
     1     1     3  ar
     2     4     1   1
     3     1    29  ar
     4     2     4   1
     5    22     2   1
     6     2    27   1
     7    19     5   1
     8    28     6   2
     9    28     7   2
    10     9     8  ar
    11    11     8  ar
    12    12     9  ar
    13    13    10  ar
    14    21    10  ar
    15    24    11  ar
    16    26    12  ar
    17    27    13  ar
    18    14    21  ar
    19    25    14  ar
    20    22    15   2
    21    15    25   1
    22    23    16   2
    23    16    24   1
    24    18    17   1
    25    17    22   1
    26    28    18  am
    27    21    19   1
    28    23    20   1
    29    20    26   1
    30    23    28   1
    31    24    26  ar
    32    25    27  ar
    33     4    30   1
    34     4    31   1
    35     5    32   1
    36     5    33   1
    37     5    34   1
    38     8    35   1
    39     9    36   1
    40    10    37   1
    41    11    38   1
    42    12    39   1
    43    13    40   1
    44    14    41   1
    45    15    42   1
    46    16    43   1
    47    17    44   1
    48    17    45   1
    49    18    46   1
@<TRIPOS>SUBSTRUCTURE
     1  FG5      1

