@<TRIPOS>MOLECULE
3ivg_ligand_064
    46    49
SMALL
GAST_HUCK
****
This file was generated by PARSER (from files_GN.cpp)

@<TRIPOS>ATOM
      1 C           3.3915  -14.4761   37.9858 C.2         1 FG5       0.0635
      2 N           2.9327  -12.8976   36.2061 N.pl3       1 FG5      -0.2501
      3 O           2.9020  -15.4767   38.7483 O.co2       1 FG5      -0.5663
      4 CA          2.9172  -14.2853   36.6003 C.3         1 FG5       0.1031
      5 CAA        -0.8167   -8.0733   37.5902 C.3         1 FG5       0.0567
      6 OAC         6.9096  -12.4497   31.8008 O.2         1 FG5      -0.1460
      7 OAD         7.1377  -10.7329   33.5765 O.2         1 FG5      -0.1460
      8 CAF         1.1868   -8.5943   30.4307 C.ar        1 FG5      -0.0767
      9 CAG         2.2190   -7.9141   29.7440 C.ar        1 FG5      -0.0734
     10 CAH        -0.2926  -11.0968   36.8706 C.ar        1 FG5      -0.0489
     11 CAI         1.4919   -9.6602   31.3051 C.ar        1 FG5      -0.0712
     12 CAJ         3.5683   -8.2613   29.9613 C.ar        1 FG5      -0.0310
     13 CAK         0.5901  -12.1973   36.8580 C.ar        1 FG5      -0.0524
     14 CAL         1.4134   -9.6870   35.8319 C.ar        1 FG5      -0.0541
     15 CAM         3.5960  -10.9110   35.4221 C.2         1 FG5      -0.0688
     16 CAN         3.4571  -10.9882   32.2679 C.2         1 FG5      -0.0189
     17 CAO         5.3628  -12.7215   35.3995 C.3         1 FG5       0.0846
     18 NAQ         5.6081  -12.9315   34.0116 N.am        1 FG5      -0.2288
     19 OAR        -0.7583   -8.7835   36.3416 O.3         1 FG5      -0.3308
     20 OAS         5.0633   -9.8081   31.2313 O.3         1 FG5      -0.2287
     21 CAU         0.1134   -9.8410   36.3598 C.ar        1 FG5       0.0691
     22 CAV         3.9900  -12.2273   35.6665 C.2         1 FG5       0.0618
     23 CAW         4.8272  -10.8206   32.1090 C.2         1 FG5       0.2522
     24 CAX         2.8420  -10.0145   31.4938 C.ar        1 FG5      -0.0094
     25 CAY         2.2811  -10.7926   35.8341 C.ar        1 FG5      -0.0477
     26 CAZ         3.8644   -9.3109   30.8467 C.ar        1 FG5       0.1269
     27 CBA         1.8890  -12.0392   36.3290 C.ar        1 FG5       0.0540
     28 SBC         6.0677  -11.7174   32.9316 S.o2        1 FG5       0.1039
     29 OXT         4.3915  -13.7153   38.4925 O.co2       1 FG5      -0.5663
     30 H1          1.9036  -14.6888   36.5059 H           1 FG5       0.0766
     31 H2          3.5432  -14.8895   35.9395 H           1 FG5       0.0766
     32 H3         -1.4950   -7.2313   37.4722 H           1 FG5       0.0573
     33 H4          0.1666   -7.6830   37.8725 H           1 FG5       0.0573
     34 H5         -1.1995   -8.7113   38.3911 H           1 FG5       0.0573
     35 H6          0.2151   -8.3109   30.2907 H           1 FG5       0.0527
     36 H7          1.9836   -7.1580   29.0929 H           1 FG5       0.0542
     37 H8         -1.2362  -11.2104   37.2489 H           1 FG5       0.0453
     38 H9          0.7445  -10.1555   31.7978 H           1 FG5       0.0546
     39 H10         4.3156   -7.7574   29.4835 H           1 FG5       0.0562
     40 H11         0.2827  -13.0932   37.2366 H           1 FG5       0.0517
     41 H12         1.7209   -8.7817   35.4638 H           1 FG5       0.0403
     42 H13         4.1794  -10.1622   35.0488 H           1 FG5       0.0155
     43 H14         2.9949  -11.6816   32.8590 H           1 FG5       0.0361
     44 H15         6.0927  -12.0175   35.8078 H           1 FG5       0.0685
     45 H16         5.5272  -13.6686   35.9087 H           1 FG5       0.0685
     46 H17         5.5708  -13.8450   33.6747 H           1 FG5       0.1706
@<TRIPOS>BOND
     1     1     3  ar
     2     4     1   1
     3     1    29  ar
     4     2     4   1
     5    22     2   1
     6     2    27   1
     7    19     5   1
     8    28     6   2
     9    28     7   2
    10     9     8  ar
    11    11     8  ar
    12    12     9  ar
    13    13    10  ar
    14    21    10  ar
    15    24    11  ar
    16    26    12  ar
    17    27    13  ar
    18    14    21  ar
    19    25    14  ar
    20    22    15   2
    21    15    25   1
    22    23    16   2
    23    16    24   1
    24    18    17   1
    25    17    22   1
    26    28    18  am
    27    21    19   1
    28    23    20   1
    29    20    26   1
    30    23    28   1
    31    24    26  ar
    32    25    27  ar
    33     4    30   1
    34     4    31   1
    35     5    32   1
    36     5    33   1
    37     5    34   1
    38     8    35   1
    39     9    36   1
    40    10    37   1
    41    11    38   1
    42    12    39   1
    43    13    40   1
    44    14    41   1
    45    15    42   1
    46    16    43   1
    47    17    44   1
    48    17    45   1
    49    18    46   1
@<TRIPOS>SUBSTRUCTURE
     1  FG5      1

