@<TRIPOS>MOLECULE
3ivg_ligand_053
    46    49
SMALL
GAST_HUCK
****
This file was generated by PARSER (from files_GN.cpp)

@<TRIPOS>ATOM
      1 C           8.1616  -14.4667   41.5560 C.2         1 FG5       0.0635
      2 N           7.7552  -14.4529   39.1652 N.pl3       1 FG5      -0.2501
      3 O           7.2167  -13.8344   42.2895 O.co2       1 FG5      -0.5663
      4 CA          7.7708  -15.2466   40.3733 C.3         1 FG5       0.1031
      5 CAA        11.7460  -11.1410   35.5438 C.3         1 FG5       0.0567
      6 OAC         4.2200  -13.2179   35.4159 O.2         1 FG5      -0.1460
      7 OAD         2.1134  -14.0650   36.6280 O.2         1 FG5      -0.1460
      8 CAF         5.6665  -20.0264   35.4983 C.ar        1 FG5      -0.0767
      9 CAG         4.2767  -20.2621   35.3841 C.ar        1 FG5      -0.0734
     10 CAH        11.1642  -13.7703   37.7387 C.ar        1 FG5      -0.0489
     11 CAI         6.1529  -18.7300   35.7679 C.ar        1 FG5      -0.0712
     12 CAJ         3.3573  -19.2022   35.5340 C.ar        1 FG5      -0.0310
     13 CAK        10.2347  -14.3050   38.6553 C.ar        1 FG5      -0.0524
     14 CAL         9.3567  -12.8216   36.4084 C.ar        1 FG5      -0.0541
     15 CAM         7.0655  -13.2595   37.4049 C.2         1 FG5      -0.0688
     16 CAN         5.3772  -16.3319   36.1740 C.2         1 FG5      -0.0189
     17 CAO         5.2331  -14.2219   38.9028 C.3         1 FG5       0.0846
     18 NAQ         4.2624  -13.5681   38.0886 N.am        1 FG5      -0.2288
     19 OAR        11.6766  -12.5687   35.7350 O.3         1 FG5      -0.3308
     20 OAS         3.1811  -16.7581   35.9961 O.3         1 FG5      -0.2287
     21 CAU        10.7379  -13.0094   36.6285 C.ar        1 FG5       0.0691
     22 CAV         6.6479  -13.9841   38.5222 C.2         1 FG5       0.0618
     23 CAW         4.0991  -15.7879   36.2367 C.2         1 FG5       0.2522
     24 CAX         5.2232  -17.6845   35.9100 C.ar        1 FG5      -0.0094
     25 CAY         8.4477  -13.3268   37.3561 C.ar        1 FG5      -0.0477
     26 CAZ         3.8525  -17.9156   35.7970 C.ar        1 FG5       0.1269
     27 CBA         8.8567  -14.0636   38.4692 C.ar        1 FG5       0.0540
     28 SBC         3.7021  -14.1427   36.6014 S.o2        1 FG5       0.1039
     29 OXT         9.4533  -14.1386   41.7648 O.co2       1 FG5      -0.5663
     30 H1          6.7922  -15.6938   40.5672 H           1 FG5       0.0766
     31 H2          8.4651  -16.0818   40.2609 H           1 FG5       0.0766
     32 H3         12.6420  -10.9112   34.9688 H           1 FG5       0.0573
     33 H4         11.8003  -10.6054   36.4940 H           1 FG5       0.0573
     34 H5         10.8813  -10.7812   34.9792 H           1 FG5       0.0573
     35 H6          6.3249  -20.7999   35.3834 H           1 FG5       0.0527
     36 H7          3.9365  -21.2073   35.1908 H           1 FG5       0.0542
     37 H8         12.1597  -13.9591   37.8737 H           1 FG5       0.0453
     38 H9          7.1544  -18.5533   35.8616 H           1 FG5       0.0546
     39 H10         2.3526  -19.3640   35.4577 H           1 FG5       0.0562
     40 H11        10.5614  -14.8791   39.4391 H           1 FG5       0.0517
     41 H12         9.0161  -12.3440   35.5731 H           1 FG5       0.0403
     42 H13         6.4779  -12.7775   36.7182 H           1 FG5       0.0155
     43 H14         6.2629  -15.8397   36.3150 H           1 FG5       0.0361
     44 H15         5.0442  -15.2917   38.9065 H           1 FG5       0.0685
     45 H16         5.0911  -13.8535   39.9182 H           1 FG5       0.0685
     46 H17         4.0247  -12.6536   38.3246 H           1 FG5       0.1706
@<TRIPOS>BOND
     1     1     3  ar
     2     4     1   1
     3     1    29  ar
     4     2     4   1
     5    22     2   1
     6     2    27   1
     7    19     5   1
     8    28     6   2
     9    28     7   2
    10     9     8  ar
    11    11     8  ar
    12    12     9  ar
    13    13    10  ar
    14    21    10  ar
    15    24    11  ar
    16    26    12  ar
    17    27    13  ar
    18    14    21  ar
    19    25    14  ar
    20    22    15   2
    21    15    25   1
    22    23    16   2
    23    16    24   1
    24    18    17   1
    25    17    22   1
    26    28    18  am
    27    21    19   1
    28    23    20   1
    29    20    26   1
    30    23    28   1
    31    24    26  ar
    32    25    27  ar
    33     4    30   1
    34     4    31   1
    35     5    32   1
    36     5    33   1
    37     5    34   1
    38     8    35   1
    39     9    36   1
    40    10    37   1
    41    11    38   1
    42    12    39   1
    43    13    40   1
    44    14    41   1
    45    15    42   1
    46    16    43   1
    47    17    44   1
    48    17    45   1
    49    18    46   1
@<TRIPOS>SUBSTRUCTURE
     1  FG5      1

