@<TRIPOS>MOLECULE
3ivg_ligand_058
    46    49
SMALL
GAST_HUCK
****
This file was generated by PARSER (from files_GN.cpp)

@<TRIPOS>ATOM
      1 C           3.3067  -14.5264   37.6741 C.2         1 FG5       0.0635
      2 N           2.1990  -14.4607   35.5402 N.pl3       1 FG5      -0.2501
      3 O           2.9473  -15.4340   38.6131 O.co2       1 FG5      -0.5663
      4 CA          3.3727  -14.9077   36.2512 C.3         1 FG5       0.1031
      5 CAA        -0.7442   -9.0735   34.1424 C.3         1 FG5       0.0567
      6 OAC         2.3967  -19.0859   33.9984 O.2         1 FG5      -0.1460
      7 OAD         2.3193  -17.1306   32.3012 O.2         1 FG5      -0.1460
      8 CAF        -2.2556  -21.8826   29.6788 C.ar        1 FG5      -0.0767
      9 CAG        -1.0689  -22.0546   28.9275 C.ar        1 FG5      -0.0734
     10 CAH         2.1975  -10.7610   34.9285 C.ar        1 FG5      -0.0489
     11 CAI        -2.2711  -21.0427   30.8093 C.ar        1 FG5      -0.0712
     12 CAJ         0.1169  -21.3831   29.3041 C.ar        1 FG5      -0.0310
     13 CAK         2.7039  -11.9846   35.4056 C.ar        1 FG5      -0.0524
     14 CAL         0.2366  -11.8964   34.0133 C.ar        1 FG5      -0.0541
     15 CAM         0.2256  -14.3848   34.4818 C.2         1 FG5      -0.0688
     16 CAN        -0.7800  -19.5284   32.2191 C.2         1 FG5      -0.0189
     17 CAO         0.8313  -16.6531   35.3803 C.3         1 FG5       0.0846
     18 NAQ         0.3967  -17.3193   34.1990 N.am        1 FG5      -0.2288
     19 OAR         0.5526   -9.5081   33.7001 O.3         1 FG5      -0.3308
     20 OAS         1.0863  -19.8222   31.0049 O.3         1 FG5      -0.2287
     21 CAU         0.9688  -10.7044   34.2299 C.ar        1 FG5       0.0691
     22 CAV         1.1369  -15.2178   35.1370 C.2         1 FG5       0.0618
     23 CAW         0.5666  -19.1937   32.0896 C.2         1 FG5       0.2522
     24 CAX        -1.0809  -20.3888   31.1754 C.ar        1 FG5      -0.0094
     25 CAY         0.7492  -13.1034   34.5131 C.ar        1 FG5      -0.0477
     26 CAZ         0.0934  -20.5551   30.4378 C.ar        1 FG5       0.1269
     27 CBA         1.9662  -13.1698   35.1886 C.ar        1 FG5       0.0540
     28 SBC         1.4363  -18.1390   33.1604 S.o2        1 FG5       0.1039
     29 OXT         3.8486  -13.3610   38.0885 O.co2       1 FG5      -0.5663
     30 H1          3.5076  -15.9834   36.1688 H           1 FG5       0.0766
     31 H2          4.2706  -14.4720   35.8040 H           1 FG5       0.0766
     32 H3         -0.9266   -8.0762   33.7431 H           1 FG5       0.0573
     33 H4         -0.7976   -9.0226   35.2321 H           1 FG5       0.0573
     34 H5         -1.5282   -9.7352   33.7669 H           1 FG5       0.0573
     35 H6         -3.1058  -22.3754   29.4018 H           1 FG5       0.0527
     36 H7         -1.0669  -22.6674   28.1142 H           1 FG5       0.0542
     37 H8          2.7315   -9.8994   35.0835 H           1 FG5       0.0453
     38 H9         -3.1263  -20.9147   31.3576 H           1 FG5       0.0546
     39 H10         0.9758  -21.5005   28.7659 H           1 FG5       0.0562
     40 H11         3.5922  -12.0065   35.9101 H           1 FG5       0.0517
     41 H12        -0.6472  -11.8828   33.4956 H           1 FG5       0.0403
     42 H13        -0.6764  -14.6595   34.0857 H           1 FG5       0.0155
     43 H14        -1.4232  -19.1988   32.9386 H           1 FG5       0.0361
     44 H15         1.6753  -17.1782   35.8283 H           1 FG5       0.0685
     45 H16         0.0116  -16.6996   36.1011 H           1 FG5       0.0685
     46 H17        -0.4711  -17.0682   33.8545 H           1 FG5       0.1706
@<TRIPOS>BOND
     1     1     3  ar
     2     4     1   1
     3     1    29  ar
     4     2     4   1
     5    22     2   1
     6     2    27   1
     7    19     5   1
     8    28     6   2
     9    28     7   2
    10     9     8  ar
    11    11     8  ar
    12    12     9  ar
    13    13    10  ar
    14    21    10  ar
    15    24    11  ar
    16    26    12  ar
    17    27    13  ar
    18    14    21  ar
    19    25    14  ar
    20    22    15   2
    21    15    25   1
    22    23    16   2
    23    16    24   1
    24    18    17   1
    25    17    22   1
    26    28    18  am
    27    21    19   1
    28    23    20   1
    29    20    26   1
    30    23    28   1
    31    24    26  ar
    32    25    27  ar
    33     4    30   1
    34     4    31   1
    35     5    32   1
    36     5    33   1
    37     5    34   1
    38     8    35   1
    39     9    36   1
    40    10    37   1
    41    11    38   1
    42    12    39   1
    43    13    40   1
    44    14    41   1
    45    15    42   1
    46    16    43   1
    47    17    44   1
    48    17    45   1
    49    18    46   1
@<TRIPOS>SUBSTRUCTURE
     1  FG5      1

