@<TRIPOS>MOLECULE
3ivg_ligand_020
    46    49
SMALL
GAST_HUCK
****
This file was generated by PARSER (from files_GN.cpp)

@<TRIPOS>ATOM
      1 C          11.6632  -14.6526   37.7511 C.2         1 FG5       0.0635
      2 N           9.5340  -13.4403   37.5201 N.pl3       1 FG5      -0.2501
      3 O          11.6268  -15.0661   39.0472 O.co2       1 FG5      -0.5663
      4 CA         10.9673  -13.4140   37.3262 C.3         1 FG5       0.1031
      5 CAA         6.4712  -15.6539   42.5659 C.3         1 FG5       0.0567
      6 OAC         6.4975  -12.8272   32.1779 O.2         1 FG5      -0.1460
      7 OAD         5.0532  -12.7885   34.2951 O.2         1 FG5      -0.1460
      8 CAF         6.7178  -19.4050   34.5739 C.ar        1 FG5      -0.0767
      9 CAG         8.0993  -19.1856   34.3658 C.ar        1 FG5      -0.0734
     10 CAH         8.5828  -14.0674   41.0939 C.ar        1 FG5      -0.0489
     11 CAI         5.8080  -18.3268   34.5349 C.ar        1 FG5      -0.0712
     12 CAJ         8.5865  -17.8848   34.1169 C.ar        1 FG5      -0.0310
     13 CAK         9.4524  -13.8426   40.0082 C.ar        1 FG5      -0.0524
     14 CAL         6.6570  -13.9110   39.6083 C.ar        1 FG5      -0.0541
     15 CAM         7.3145  -13.3461   37.2112 C.2         1 FG5      -0.0688
     16 CAN         5.6914  -15.7986   34.1950 C.2         1 FG5      -0.0189
     17 CAO         8.7579  -12.6398   35.2238 C.3         1 FG5       0.0846
     18 NAQ         7.5842  -12.1768   34.5602 N.am        1 FG5      -0.2288
     19 OAR         6.3387  -14.3572   41.9523 O.3         1 FG5      -0.3308
     20 OAS         7.8966  -15.5056   33.8751 O.3         1 FG5      -0.2287
     21 CAU         7.1872  -14.1501   40.8944 C.ar        1 FG5       0.0691
     22 CAV         8.5610  -13.1676   36.6024 C.2         1 FG5       0.0618
     23 CAW         6.7000  -14.8690   33.9466 C.2         1 FG5       0.2522
     24 CAX         6.3080  -17.0358   34.2876 C.ar        1 FG5      -0.0094
     25 CAY         7.5420  -13.6705   38.5387 C.ar        1 FG5      -0.0477
     26 CAZ         7.6708  -16.8213   34.0820 C.ar        1 FG5       0.1269
     27 CBA         8.9249  -13.6755   38.7122 C.ar        1 FG5       0.0540
     28 SBC         6.4928  -13.1608   33.7322 S.o2        1 FG5       0.1039
     29 OXT        12.6232  -15.2133   36.9729 O.co2       1 FG5      -0.5663
     30 H1         11.2140  -13.2312   36.2771 H           1 FG5       0.0766
     31 H2         11.3797  -12.5820   37.9059 H           1 FG5       0.0766
     32 H3          5.7039  -15.7527   43.3369 H           1 FG5       0.0573
     33 H4          7.4448  -15.7641   43.0484 H           1 FG5       0.0573
     34 H5          6.3327  -16.4648   41.8447 H           1 FG5       0.0573
     35 H6          6.3760  -20.3516   34.7556 H           1 FG5       0.0527
     36 H7          8.7503  -19.9735   34.3978 H           1 FG5       0.0542
     37 H8          8.9758  -14.1789   42.0288 H           1 FG5       0.0453
     38 H9          4.8093  -18.4804   34.6866 H           1 FG5       0.0546
     39 H10         9.5826  -17.7145   33.9695 H           1 FG5       0.0562
     40 H11        10.4630  -13.7745   40.1698 H           1 FG5       0.0517
     41 H12         5.6424  -13.9115   39.4532 H           1 FG5       0.0403
     42 H13         6.3959  -13.2044   36.7957 H           1 FG5       0.0155
     43 H14         4.6917  -15.6089   34.2920 H           1 FG5       0.0361
     44 H15         9.4170  -11.7697   35.2974 H           1 FG5       0.0685
     45 H16         9.2729  -13.3831   34.6126 H           1 FG5       0.0685
     46 H17         7.2939  -11.2747   34.7624 H           1 FG5       0.1706
@<TRIPOS>BOND
     1     1     3  ar
     2     4     1   1
     3     1    29  ar
     4     2     4   1
     5    22     2   1
     6     2    27   1
     7    19     5   1
     8    28     6   2
     9    28     7   2
    10     9     8  ar
    11    11     8  ar
    12    12     9  ar
    13    13    10  ar
    14    21    10  ar
    15    24    11  ar
    16    26    12  ar
    17    27    13  ar
    18    14    21  ar
    19    25    14  ar
    20    22    15   2
    21    15    25   1
    22    23    16   2
    23    16    24   1
    24    18    17   1
    25    17    22   1
    26    28    18  am
    27    21    19   1
    28    23    20   1
    29    20    26   1
    30    23    28   1
    31    24    26  ar
    32    25    27  ar
    33     4    30   1
    34     4    31   1
    35     5    32   1
    36     5    33   1
    37     5    34   1
    38     8    35   1
    39     9    36   1
    40    10    37   1
    41    11    38   1
    42    12    39   1
    43    13    40   1
    44    14    41   1
    45    15    42   1
    46    16    43   1
    47    17    44   1
    48    17    45   1
    49    18    46   1
@<TRIPOS>SUBSTRUCTURE
     1  FG5      1

