@<TRIPOS>MOLECULE
3ivg_ligand_033
    46    49
SMALL
GAST_HUCK
****
This file was generated by PARSER (from files_GN.cpp)

@<TRIPOS>ATOM
      1 C           4.2346  -15.3495   37.7369 C.2         1 FG5       0.0635
      2 N           3.2929  -13.1500   37.1232 N.pl3       1 FG5      -0.2501
      3 O           3.2359  -15.6055   38.6101 O.co2       1 FG5      -0.5663
      4 CA          4.0949  -14.2874   36.7237 C.3         1 FG5       0.1031
      5 CAA        -0.4216   -8.9862   34.1864 C.3         1 FG5       0.0567
      6 OAC         6.6975  -14.9097   39.6246 O.2         1 FG5      -0.1460
      7 OAD         7.4634  -12.8788   41.0321 O.2         1 FG5      -0.1460
      8 CAF        11.3721  -12.0367   35.2853 C.ar        1 FG5      -0.0767
      9 CAG        12.1907  -12.7853   36.1615 C.ar        1 FG5      -0.0734
     10 CAH         0.7398  -12.0729   34.5618 C.ar        1 FG5      -0.0489
     11 CAI         9.9980  -11.8713   35.5577 C.ar        1 FG5      -0.0712
     12 CAJ        11.6436  -13.3812   37.3184 C.ar        1 FG5      -0.0310
     13 CAK         1.7824  -12.8677   35.0897 C.ar        1 FG5      -0.0524
     14 CAL         0.7787  -10.6621   36.5527 C.ar        1 FG5      -0.0541
     15 CAM         2.4989  -11.3861   38.2561 C.2         1 FG5      -0.0688
     16 CAN         8.2075  -12.4359   37.2727 C.2         1 FG5      -0.0189
     17 CAO         4.3288  -12.6506   39.4330 C.3         1 FG5       0.0846
     18 NAQ         5.6693  -12.4438   39.0276 N.am        1 FG5      -0.2288
     19 OAR        -0.8076  -10.2350   34.7847 O.3         1 FG5      -0.3308
     20 OAS         9.5456  -13.6032   38.6549 O.3         1 FG5      -0.2287
     21 CAU         0.2393  -10.9656   35.2839 C.ar        1 FG5       0.0691
     22 CAV         3.4161  -12.4358   38.2834 C.2         1 FG5       0.0618
     23 CAW         8.2832  -13.1427   38.4699 C.2         1 FG5       0.2522
     24 CAX         9.4767  -12.4544   36.7247 C.ar        1 FG5      -0.0094
     25 CAY         1.8125  -11.4689   37.0604 C.ar        1 FG5      -0.0477
     26 CAZ        10.2812  -13.1922   37.5948 C.ar        1 FG5       0.1269
     27 CBA         2.3207  -12.5680   36.3646 C.ar        1 FG5       0.0540
     28 SBC         6.9804  -13.3453   39.5902 S.o2        1 FG5       0.1039
     29 OXT         5.2894  -16.2006   37.6899 O.co2       1 FG5      -0.5663
     30 H1          3.6964  -14.7643   35.8264 H           1 FG5       0.0766
     31 H2          5.0905  -13.9267   36.4638 H           1 FG5       0.0766
     32 H3         -1.3241   -8.4875   33.8314 H           1 FG5       0.0573
     33 H4          0.2405   -9.1427   33.3309 H           1 FG5       0.0573
     34 H5          0.0652   -8.3275   34.9105 H           1 FG5       0.0573
     35 H6         11.7782  -11.6078   34.4517 H           1 FG5       0.0527
     36 H7         13.1850  -12.8982   35.9528 H           1 FG5       0.0542
     37 H8          0.3398  -12.3051   33.6487 H           1 FG5       0.0453
     38 H9          9.4004  -11.3248   34.9336 H           1 FG5       0.0546
     39 H10        12.2287  -13.9246   37.9551 H           1 FG5       0.0562
     40 H11         2.1271  -13.6566   34.5432 H           1 FG5       0.0517
     41 H12         0.4209   -9.8753   37.0960 H           1 FG5       0.0403
     42 H13         2.3535  -10.6783   38.9790 H           1 FG5       0.0155
     43 H14         7.3885  -11.9691   36.8806 H           1 FG5       0.0361
     44 H15         4.1254  -11.9328   40.2322 H           1 FG5       0.0685
     45 H16         4.1768  -13.6584   39.8324 H           1 FG5       0.0685
     46 H17         5.8683  -11.6148   38.5583 H           1 FG5       0.1706
@<TRIPOS>BOND
     1     1     3  ar
     2     4     1   1
     3     1    29  ar
     4     2     4   1
     5    22     2   1
     6     2    27   1
     7    19     5   1
     8    28     6   2
     9    28     7   2
    10     9     8  ar
    11    11     8  ar
    12    12     9  ar
    13    13    10  ar
    14    21    10  ar
    15    24    11  ar
    16    26    12  ar
    17    27    13  ar
    18    14    21  ar
    19    25    14  ar
    20    22    15   2
    21    15    25   1
    22    23    16   2
    23    16    24   1
    24    18    17   1
    25    17    22   1
    26    28    18  am
    27    21    19   1
    28    23    20   1
    29    20    26   1
    30    23    28   1
    31    24    26  ar
    32    25    27  ar
    33     4    30   1
    34     4    31   1
    35     5    32   1
    36     5    33   1
    37     5    34   1
    38     8    35   1
    39     9    36   1
    40    10    37   1
    41    11    38   1
    42    12    39   1
    43    13    40   1
    44    14    41   1
    45    15    42   1
    46    16    43   1
    47    17    44   1
    48    17    45   1
    49    18    46   1
@<TRIPOS>SUBSTRUCTURE
     1  FG5      1

