@<TRIPOS>MOLECULE
3ivg_ligand_000
    46    49
SMALL
GAST_HUCK
****
This file was generated by PARSER (from files_GN.cpp)

@<TRIPOS>ATOM
      1 C           2.9055  -14.3160   37.9109 C.2         1 FG5       0.0635
      2 N           5.1821  -13.5161   37.9492 N.pl3       1 FG5      -0.2501
      3 O           2.0078  -14.1229   36.9109 O.co2       1 FG5      -0.5663
      4 CA          3.8157  -13.2256   38.2953 C.3         1 FG5       0.1031
      5 CAA        11.0046  -14.6076   40.2865 C.3         1 FG5       0.0567
      6 OAC         6.5198  -13.3295   31.9581 O.2         1 FG5      -0.1460
      7 OAD         8.0661  -14.8454   33.3248 O.2         1 FG5      -0.1460
      8 CAF        10.1655   -9.0989   36.4145 C.ar        1 FG5      -0.0767
      9 CAG         8.9974   -8.3681   36.1045 C.ar        1 FG5      -0.0734
     10 CAH         7.4187  -13.9870   40.9409 C.ar        1 FG5      -0.0489
     11 CAI        10.3107  -10.4328   35.9803 C.ar        1 FG5      -0.0712
     12 CAJ         7.9613   -8.9630   35.3606 C.ar        1 FG5      -0.0310
     13 CAK         6.2097  -13.6903   40.2694 C.ar        1 FG5      -0.0524
     14 CAL         8.5877  -14.2050   38.8169 C.ar        1 FG5      -0.0541
     15 CAM         7.0768  -13.9426   36.8325 C.2         1 FG5      -0.0688
     16 CAN         9.0893  -12.2798   34.7041 C.2         1 FG5      -0.0189
     17 CAO         5.0433  -13.5482   35.3770 C.3         1 FG5       0.0846
     18 NAQ         5.7210  -14.2770   34.3534 N.am        1 FG5      -0.2288
     19 OAR         9.7544  -14.4470   40.9749 O.3         1 FG5      -0.3308
     20 OAS         7.2316  -11.0869   34.2807 O.3         1 FG5      -0.2287
     21 CAU         8.6165  -14.2407   40.2307 C.ar        1 FG5       0.0691
     22 CAV         5.7132  -13.6590   36.6951 C.2         1 FG5       0.0618
     23 CAW         7.8213  -12.2977   34.1275 C.2         1 FG5       0.2522
     24 CAX         9.2602  -11.0159   35.2413 C.ar        1 FG5      -0.0094
     25 CAY         7.3627  -13.9605   38.1776 C.ar        1 FG5      -0.0477
     26 CAZ         8.1033  -10.2974   34.9472 C.ar        1 FG5       0.1269
     27 CBA         6.1776  -13.7024   38.8599 C.ar        1 FG5       0.0540
     28 SBC         7.0054  -13.6634   33.4368 S.o2        1 FG5       0.1039
     29 OXT         2.7345  -15.3638   38.7573 O.co2       1 FG5      -0.5663
     30 H1          3.7373  -13.0881   39.3787 H           1 FG5       0.0766
     31 H2          3.4877  -12.2872   37.8316 H           1 FG5       0.0766
     32 H3         11.7601  -14.9079   41.0142 H           1 FG5       0.0573
     33 H4         11.3321  -13.6600   39.8536 H           1 FG5       0.0573
     34 H5         10.9331  -15.3688   39.5007 H           1 FG5       0.0573
     35 H6         10.9133   -8.6570   36.9591 H           1 FG5       0.0527
     36 H7          8.9008   -7.4001   36.4315 H           1 FG5       0.0542
     37 H8          7.4158  -14.0233   41.9590 H           1 FG5       0.0453
     38 H9         11.1510  -10.9702   36.2112 H           1 FG5       0.0546
     39 H10         7.1103   -8.4426   35.1339 H           1 FG5       0.0562
     40 H11         5.3671  -13.4819   40.8065 H           1 FG5       0.0517
     41 H12         9.4279  -14.3678   38.2584 H           1 FG5       0.0403
     42 H13         7.7530  -14.1519   36.0974 H           1 FG5       0.0155
     43 H14         9.7406  -13.0614   34.7656 H           1 FG5       0.0361
     44 H15         4.0371  -13.9581   35.4377 H           1 FG5       0.0685
     45 H16         4.9470  -12.4950   35.1081 H           1 FG5       0.0685
     46 H17         5.5744  -15.2378   34.3253 H           1 FG5       0.1706
@<TRIPOS>BOND
     1     1     3  ar
     2     4     1   1
     3     1    29  ar
     4     2     4   1
     5    22     2   1
     6     2    27   1
     7    19     5   1
     8    28     6   2
     9    28     7   2
    10     9     8  ar
    11    11     8  ar
    12    12     9  ar
    13    13    10  ar
    14    21    10  ar
    15    24    11  ar
    16    26    12  ar
    17    27    13  ar
    18    14    21  ar
    19    25    14  ar
    20    22    15   2
    21    15    25   1
    22    23    16   2
    23    16    24   1
    24    18    17   1
    25    17    22   1
    26    28    18  am
    27    21    19   1
    28    23    20   1
    29    20    26   1
    30    23    28   1
    31    24    26  ar
    32    25    27  ar
    33     4    30   1
    34     4    31   1
    35     5    32   1
    36     5    33   1
    37     5    34   1
    38     8    35   1
    39     9    36   1
    40    10    37   1
    41    11    38   1
    42    12    39   1
    43    13    40   1
    44    14    41   1
    45    15    42   1
    46    16    43   1
    47    17    44   1
    48    17    45   1
    49    18    46   1
@<TRIPOS>SUBSTRUCTURE
     1  FG5      1

