@<TRIPOS>MOLECULE
3ivg_ligand_087
    46    49
SMALL
GAST_HUCK
****
This file was generated by PARSER (from files_GN.cpp)

@<TRIPOS>ATOM
      1 C           2.9382  -14.8244   37.6654 C.2         1 FG5       0.0635
      2 N           5.2133  -15.2902   36.9089 N.pl3       1 FG5      -0.2501
      3 O           3.0244  -13.5641   37.1875 O.co2       1 FG5      -0.5663
      4 CA          3.9708  -15.8429   37.3907 C.3         1 FG5       0.1031
      5 CAA         7.4163  -14.0961   31.1599 C.3         1 FG5       0.0567
      6 OAC         9.5110  -15.6485   40.1396 O.2         1 FG5      -0.1460
      7 OAD         8.6928  -13.8571   41.7357 O.2         1 FG5      -0.1460
      8 CAF        10.4301  -10.6769   35.4761 C.ar        1 FG5      -0.0767
      9 CAG        11.5536  -11.5375   35.4888 C.ar        1 FG5      -0.0734
     10 CAH         5.8992  -15.9253   33.2523 C.ar        1 FG5      -0.0489
     11 CAI         9.4531  -10.7515   36.4905 C.ar        1 FG5      -0.0712
     12 CAJ        11.7033  -12.4961   36.5203 C.ar        1 FG5      -0.0310
     13 CAK         5.1696  -16.0011   34.4621 C.ar        1 FG5      -0.0524
     14 CAL         7.6191  -14.5929   34.3619 C.ar        1 FG5      -0.0541
     15 CAM         7.1726  -14.2233   36.8021 C.2         1 FG5      -0.0688
     16 CAN         8.7673  -12.1280   38.5254 C.2         1 FG5      -0.0189
     17 CAO         6.0975  -14.1786   39.0708 C.3         1 FG5       0.0846
     18 NAQ         7.0593  -14.8972   39.8356 N.am        1 FG5      -0.2288
     19 OAR         7.8601  -15.1279   32.0553 O.3         1 FG5      -0.3308
     20 OAS        10.5340  -13.5169   38.4678 O.3         1 FG5      -0.2287
     21 CAU         7.1143  -15.2034   33.1975 C.ar        1 FG5       0.0691
     22 CAV         6.1266  -14.5844   37.6425 C.2         1 FG5       0.0618
     23 CAW         9.3516  -13.2591   39.0890 C.2         1 FG5       0.2522
     24 CAX         9.5918  -11.7396   37.4777 C.ar        1 FG5      -0.0094
     25 CAY         6.8865  -14.7065   35.5499 C.ar        1 FG5      -0.0477
     26 CAZ        10.6909  -12.6029   37.4891 C.ar        1 FG5       0.1269
     27 CBA         5.6738  -15.3870   35.6273 C.ar        1 FG5       0.0540
     28 SBC         8.6021  -14.3394   40.2243 S.o2        1 FG5       0.1039
     29 OXT         1.8531  -15.1631   38.3988 O.co2       1 FG5      -0.5663
     30 H1          3.5425  -16.5436   36.6702 H           1 FG5       0.0766
     31 H2          4.1701  -16.4066   38.3026 H           1 FG5       0.0766
     32 H3          8.1487  -13.9998   30.3607 H           1 FG5       0.0573
     33 H4          7.3384  -13.1246   31.6552 H           1 FG5       0.0573
     34 H5          6.4595  -14.3643   30.7112 H           1 FG5       0.0573
     35 H6         10.3247   -9.9922   34.7209 H           1 FG5       0.0527
     36 H7         12.2547  -11.4763   34.7472 H           1 FG5       0.0542
     37 H8          5.5450  -16.3932   32.4150 H           1 FG5       0.0453
     38 H9          8.6456  -10.1285   36.4907 H           1 FG5       0.0546
     39 H10        12.5040  -13.1309   36.5318 H           1 FG5       0.0562
     40 H11         4.2827  -16.5144   34.4714 H           1 FG5       0.0517
     41 H12         8.4961  -14.0763   34.3401 H           1 FG5       0.0403
     42 H13         8.0028  -13.7121   37.0250 H           1 FG5       0.0155
     43 H14         7.8424  -11.7433   38.7356 H           1 FG5       0.0361
     44 H15         6.2485  -13.1003   39.1408 H           1 FG5       0.0685
     45 H16         5.1163  -14.3848   39.5029 H           1 FG5       0.0685
     46 H17         6.8137  -15.7831   40.1484 H           1 FG5       0.1706
@<TRIPOS>BOND
     1     1     3  ar
     2     4     1   1
     3     1    29  ar
     4     2     4   1
     5    22     2   1
     6     2    27   1
     7    19     5   1
     8    28     6   2
     9    28     7   2
    10     9     8  ar
    11    11     8  ar
    12    12     9  ar
    13    13    10  ar
    14    21    10  ar
    15    24    11  ar
    16    26    12  ar
    17    27    13  ar
    18    14    21  ar
    19    25    14  ar
    20    22    15   2
    21    15    25   1
    22    23    16   2
    23    16    24   1
    24    18    17   1
    25    17    22   1
    26    28    18  am
    27    21    19   1
    28    23    20   1
    29    20    26   1
    30    23    28   1
    31    24    26  ar
    32    25    27  ar
    33     4    30   1
    34     4    31   1
    35     5    32   1
    36     5    33   1
    37     5    34   1
    38     8    35   1
    39     9    36   1
    40    10    37   1
    41    11    38   1
    42    12    39   1
    43    13    40   1
    44    14    41   1
    45    15    42   1
    46    16    43   1
    47    17    44   1
    48    17    45   1
    49    18    46   1
@<TRIPOS>SUBSTRUCTURE
     1  FG5      1

