@<TRIPOS>MOLECULE
3ivg_ligand_051
    46    49
SMALL
GAST_HUCK
****
This file was generated by PARSER (from files_GN.cpp)

@<TRIPOS>ATOM
      1 C           1.5066   -8.7347   35.2563 C.2         1 FG5       0.0635
      2 N           0.8621  -11.0832   34.8567 N.pl3       1 FG5      -0.2501
      3 O           1.1133   -7.4557   35.5044 O.co2       1 FG5      -0.5663
      4 CA          0.5927   -9.8572   35.5743 C.3         1 FG5       0.1031
      5 CAA        -0.2920  -17.1972   35.3797 C.3         1 FG5       0.0567
      6 OAC         4.6485   -9.0968   30.7649 O.2         1 FG5      -0.1460
      7 OAD         2.7434   -7.4416   31.1295 O.2         1 FG5      -0.1460
      8 CAF         0.9022  -11.3441   25.4367 C.ar        1 FG5      -0.0767
      9 CAG        -0.3412  -11.1546   26.0793 C.ar        1 FG5      -0.0734
     10 CAH         0.5083  -14.2231   36.8875 C.ar        1 FG5      -0.0489
     11 CAI         2.1060  -11.0080   26.0976 C.ar        1 FG5      -0.0712
     12 CAJ        -0.3949  -10.6161   27.3791 C.ar        1 FG5      -0.0310
     13 CAK         0.5435  -12.8326   36.6671 C.ar        1 FG5      -0.0524
     14 CAL         1.0551  -14.6364   34.5415 C.ar        1 FG5      -0.0541
     15 CAM         1.2593  -12.5181   33.1794 C.2         1 FG5      -0.0688
     16 CAN         3.0124  -10.0122   28.2665 C.2         1 FG5      -0.0189
     17 CAO         1.2283  -10.1078   32.5127 C.3         1 FG5       0.0846
     18 NAQ         2.5914   -9.8831   32.2001 N.am        1 FG5      -0.2288
     19 OAR         0.7307  -16.4752   36.0889 O.3         1 FG5      -0.3308
     20 OAS         1.0072   -9.7253   29.2354 O.3         1 FG5      -0.2287
     21 CAU         0.7470  -15.1314   35.8326 C.ar        1 FG5       0.0691
     22 CAV         1.1165  -11.1787   33.5183 C.2         1 FG5       0.0618
     23 CAW         2.3454   -9.5685   29.4053 C.2         1 FG5       0.2522
     24 CAX         2.0352  -10.4495   27.3830 C.ar        1 FG5      -0.0094
     25 CAY         1.0668  -13.2510   34.3392 C.ar        1 FG5      -0.0477
     26 CAZ         0.8055  -10.2566   28.0113 C.ar        1 FG5       0.1269
     27 CBA         0.8248  -12.3431   35.3699 C.ar        1 FG5       0.0540
     28 SBC         3.0646   -8.9737   30.8684 S.o2        1 FG5       0.1039
     29 OXT         2.6937   -8.9110   34.6292 O.co2       1 FG5      -0.5663
     30 H1         -0.4368   -9.5642   35.3381 H           1 FG5       0.0766
     31 H2          0.6388  -10.0006   36.6576 H           1 FG5       0.0766
     32 H3         -0.2594  -18.2368   35.7086 H           1 FG5       0.0573
     33 H4         -0.1175  -17.1802   34.3008 H           1 FG5       0.0573
     34 H5         -1.2887  -16.8005   35.5939 H           1 FG5       0.0573
     35 H6          0.9312  -11.7283   24.4901 H           1 FG5       0.0527
     36 H7         -1.2084  -11.4134   25.6014 H           1 FG5       0.0542
     37 H8          0.2962  -14.5791   37.8221 H           1 FG5       0.0453
     38 H9          3.0090  -11.1782   25.6485 H           1 FG5       0.0546
     39 H10        -1.2833  -10.4900   27.8596 H           1 FG5       0.0562
     40 H11         0.3604  -12.1960   37.4444 H           1 FG5       0.0517
     41 H12         1.2407  -15.2769   33.7691 H           1 FG5       0.0403
     42 H13         1.4289  -12.8991   32.2487 H           1 FG5       0.0155
     43 H14         4.0219  -10.0225   28.1144 H           1 FG5       0.0361
     44 H15         0.6718  -10.4146   31.6133 H           1 FG5       0.0685
     45 H16         0.7776   -9.1880   32.8700 H           1 FG5       0.0685
     46 H17         3.2583  -10.0413   32.8892 H           1 FG5       0.1706
@<TRIPOS>BOND
     1     1     3  ar
     2     4     1   1
     3     1    29  ar
     4     2     4   1
     5    22     2   1
     6     2    27   1
     7    19     5   1
     8    28     6   2
     9    28     7   2
    10     9     8  ar
    11    11     8  ar
    12    12     9  ar
    13    13    10  ar
    14    21    10  ar
    15    24    11  ar
    16    26    12  ar
    17    27    13  ar
    18    14    21  ar
    19    25    14  ar
    20    22    15   2
    21    15    25   1
    22    23    16   2
    23    16    24   1
    24    18    17   1
    25    17    22   1
    26    28    18  am
    27    21    19   1
    28    23    20   1
    29    20    26   1
    30    23    28   1
    31    24    26  ar
    32    25    27  ar
    33     4    30   1
    34     4    31   1
    35     5    32   1
    36     5    33   1
    37     5    34   1
    38     8    35   1
    39     9    36   1
    40    10    37   1
    41    11    38   1
    42    12    39   1
    43    13    40   1
    44    14    41   1
    45    15    42   1
    46    16    43   1
    47    17    44   1
    48    17    45   1
    49    18    46   1
@<TRIPOS>SUBSTRUCTURE
     1  FG5      1

