@<TRIPOS>MOLECULE
3ivg_ligand_061
    46    49
SMALL
GAST_HUCK
****
This file was generated by PARSER (from files_GN.cpp)

@<TRIPOS>ATOM
      1 C           2.2071  -14.6606   37.6337 C.2         1 FG5       0.0635
      2 N           3.4732  -13.1173   36.1656 N.pl3       1 FG5      -0.2501
      3 O           2.7184  -15.1871   38.7715 O.co2       1 FG5      -0.5663
      4 CA          2.5301  -13.2775   37.2540 C.3         1 FG5       0.1031
      5 CAA         7.5663  -17.3006   33.6248 C.3         1 FG5       0.0567
      6 OAC        -0.6738  -11.7033   33.3279 O.2         1 FG5      -0.1460
      7 OAD         1.2365  -13.3974   33.4963 O.2         1 FG5      -0.1460
      8 CAF         3.1479   -9.4290   28.1416 C.ar        1 FG5      -0.0767
      9 CAG         3.8959   -8.6282   29.0361 C.ar        1 FG5      -0.0734
     10 CAH         6.0313  -15.8462   35.7033 C.ar        1 FG5      -0.0489
     11 CAI         2.2416  -10.3945   28.6332 C.ar        1 FG5      -0.0712
     12 CAJ         3.7439   -8.7799   30.4294 C.ar        1 FG5      -0.0310
     13 CAK         4.9504  -15.1826   36.3185 C.ar        1 FG5      -0.0524
     14 CAL         6.2594  -14.0367   34.0874 C.ar        1 FG5      -0.0541
     15 CAM         4.5762  -12.1695   34.4517 C.2         1 FG5      -0.0688
     16 CAN         1.3228  -11.3747   30.7987 C.2         1 FG5      -0.0189
     17 CAO         2.6364  -10.8340   35.3774 C.3         1 FG5       0.0846
     18 NAQ         1.3044  -11.1529   34.9933 N.am        1 FG5      -0.2288
     19 OAR         7.7577  -15.9135   33.9665 O.3         1 FG5      -0.3308
     20 OAS         2.5228  -10.0658   32.1825 O.3         1 FG5      -0.2287
     21 CAU         6.6810  -15.2978   34.5675 C.ar        1 FG5       0.0691
     22 CAV         3.5269  -12.0193   35.3601 C.2         1 FG5       0.0618
     23 CAW         1.6000  -11.0640   32.1271 C.2         1 FG5       0.2522
     24 CAX         2.1048  -10.5324   30.0243 C.ar        1 FG5      -0.0094
     25 CAY         5.1759  -13.3877   34.7164 C.ar        1 FG5      -0.0477
     26 CAZ         2.8387   -9.7395   30.9069 C.ar        1 FG5       0.1269
     27 CBA         4.4944  -13.9471   35.8023 C.ar        1 FG5       0.0540
     28 SBC         0.8997  -11.8409   33.5074 S.o2        1 FG5       0.1039
     29 OXT         1.4273  -15.4319   36.8433 O.co2       1 FG5      -0.5663
     30 H1          2.9225  -12.7353   38.1182 H           1 FG5       0.0766
     31 H2          1.5704  -12.8244   36.9990 H           1 FG5       0.0766
     32 H3          8.4423  -17.6463   33.0722 H           1 FG5       0.0573
     33 H4          6.6869  -17.4411   32.9908 H           1 FG5       0.0573
     34 H5          7.4760  -17.9206   34.5180 H           1 FG5       0.0573
     35 H6          3.2580   -9.3064   27.1345 H           1 FG5       0.0527
     36 H7          4.5463   -7.9326   28.6662 H           1 FG5       0.0542
     37 H8          6.3423  -16.7355   36.0880 H           1 FG5       0.0453
     38 H9          1.6961  -10.9752   27.9924 H           1 FG5       0.0546
     39 H10         4.2813   -8.2061   31.0788 H           1 FG5       0.0562
     40 H11         4.5108  -15.6059   37.1362 H           1 FG5       0.0517
     41 H12         6.7307  -13.5946   33.2960 H           1 FG5       0.0403
     42 H13         4.8558  -11.5085   33.7206 H           1 FG5       0.0155
     43 H14         0.6764  -12.0885   30.4588 H           1 FG5       0.0361
     44 H15         2.6175  -10.4253   36.3856 H           1 FG5       0.0685
     45 H16         3.0212  -10.0510   34.7231 H           1 FG5       0.0685
     46 H17         0.6100  -11.1216   35.6751 H           1 FG5       0.1706
@<TRIPOS>BOND
     1     1     3  ar
     2     4     1   1
     3     1    29  ar
     4     2     4   1
     5    22     2   1
     6     2    27   1
     7    19     5   1
     8    28     6   2
     9    28     7   2
    10     9     8  ar
    11    11     8  ar
    12    12     9  ar
    13    13    10  ar
    14    21    10  ar
    15    24    11  ar
    16    26    12  ar
    17    27    13  ar
    18    14    21  ar
    19    25    14  ar
    20    22    15   2
    21    15    25   1
    22    23    16   2
    23    16    24   1
    24    18    17   1
    25    17    22   1
    26    28    18  am
    27    21    19   1
    28    23    20   1
    29    20    26   1
    30    23    28   1
    31    24    26  ar
    32    25    27  ar
    33     4    30   1
    34     4    31   1
    35     5    32   1
    36     5    33   1
    37     5    34   1
    38     8    35   1
    39     9    36   1
    40    10    37   1
    41    11    38   1
    42    12    39   1
    43    13    40   1
    44    14    41   1
    45    15    42   1
    46    16    43   1
    47    17    44   1
    48    17    45   1
    49    18    46   1
@<TRIPOS>SUBSTRUCTURE
     1  FG5      1

