@<TRIPOS>MOLECULE
3ivg_ligand_045
    46    49
SMALL
GAST_HUCK
****
This file was generated by PARSER (from files_GN.cpp)

@<TRIPOS>ATOM
      1 C           5.5510  -15.6808   36.7584 C.2         1 FG5       0.0635
      2 N           5.2848  -14.0346   38.5667 N.pl3       1 FG5      -0.2501
      3 O           4.4446  -15.3326   36.0713 O.co2       1 FG5      -0.5663
      4 CA          5.7390  -15.3517   38.1878 C.3         1 FG5       0.1031
      5 CAA        -0.5439  -11.7839   37.8881 C.3         1 FG5       0.0567
      6 OAC         8.5741  -13.9930   36.3155 O.2         1 FG5      -0.1460
      7 OAD         9.5286  -11.7156   35.8680 O.2         1 FG5      -0.1460
      8 CAF         3.6849  -10.9430   32.3195 C.ar        1 FG5      -0.0767
      9 CAG         2.8483  -11.2990   33.4018 C.ar        1 FG5      -0.0734
     10 CAH         1.5393  -13.8023   38.6269 C.ar        1 FG5      -0.0489
     11 CAI         5.0890  -11.0165   32.4462 C.ar        1 FG5      -0.0712
     12 CAJ         3.4066  -11.7294   34.6265 C.ar        1 FG5      -0.0310
     13 CAK         2.7932  -14.4289   38.4842 C.ar        1 FG5      -0.0524
     14 CAL         2.6431  -11.6800   39.1190 C.ar        1 FG5      -0.0541
     15 CAM         5.1764  -11.8742   39.1383 C.2         1 FG5      -0.0688
     16 CAN         6.9351  -11.6297   34.0964 C.2         1 FG5      -0.0189
     17 CAO         7.5116  -12.8129   39.0360 C.3         1 FG5       0.0846
     18 NAQ         8.0512  -11.9664   38.0302 N.am        1 FG5      -0.2288
     19 OAR         0.2448  -11.8183   39.0903 O.3         1 FG5      -0.3308
     20 OAS         5.5686  -12.1843   35.7939 O.3         1 FG5      -0.2287
     21 CAU         1.4583  -12.4246   38.9268 C.ar        1 FG5       0.0691
     22 CAV         6.0387  -12.9498   38.9018 C.2         1 FG5       0.0618
     23 CAW         6.8690  -12.0810   35.4133 C.2         1 FG5       0.2522
     24 CAX         5.6290  -11.4504   33.6715 C.ar        1 FG5      -0.0094
     25 CAY         3.8813  -12.3287   38.9818 C.ar        1 FG5      -0.0477
     26 CAZ         4.8051  -11.8005   34.7423 C.ar        1 FG5       0.1269
     27 CBA         3.9751  -13.6793   38.6536 C.ar        1 FG5       0.0540
     28 SBC         8.2313  -12.4453   36.4248 S.o2        1 FG5       0.1039
     29 OXT         6.2341  -16.7264   36.2488 O.co2       1 FG5      -0.5663
     30 H1          6.8051  -15.4721   38.3749 H           1 FG5       0.0766
     31 H2          5.2434  -16.0967   38.8198 H           1 FG5       0.0766
     32 H3         -1.4993  -11.3095   38.1164 H           1 FG5       0.0573
     33 H4         -0.7475  -12.7916   37.5208 H           1 FG5       0.0573
     34 H5         -0.0468  -11.2055   37.1049 H           1 FG5       0.0573
     35 H6          3.2713  -10.6274   31.4388 H           1 FG5       0.0527
     36 H7          1.8335  -11.2455   33.2979 H           1 FG5       0.0542
     37 H8          0.6892  -14.3599   38.5056 H           1 FG5       0.0453
     38 H9          5.6980  -10.7596   31.6660 H           1 FG5       0.0546
     39 H10         2.8076  -11.9901   35.4135 H           1 FG5       0.0562
     40 H11         2.8308  -15.4189   38.2580 H           1 FG5       0.0517
     41 H12         2.5973  -10.6895   39.3651 H           1 FG5       0.0403
     42 H13         5.4399  -10.9236   39.4030 H           1 FG5       0.0155
     43 H14         7.7784  -11.4645   33.5485 H           1 FG5       0.0361
     44 H15         7.7175  -12.3620   40.0068 H           1 FG5       0.0685
     45 H16         8.0371  -13.7667   39.0227 H           1 FG5       0.0685
     46 H17         7.9637  -11.0155   38.1766 H           1 FG5       0.1706
@<TRIPOS>BOND
     1     1     3  ar
     2     4     1   1
     3     1    29  ar
     4     2     4   1
     5    22     2   1
     6     2    27   1
     7    19     5   1
     8    28     6   2
     9    28     7   2
    10     9     8  ar
    11    11     8  ar
    12    12     9  ar
    13    13    10  ar
    14    21    10  ar
    15    24    11  ar
    16    26    12  ar
    17    27    13  ar
    18    14    21  ar
    19    25    14  ar
    20    22    15   2
    21    15    25   1
    22    23    16   2
    23    16    24   1
    24    18    17   1
    25    17    22   1
    26    28    18  am
    27    21    19   1
    28    23    20   1
    29    20    26   1
    30    23    28   1
    31    24    26  ar
    32    25    27  ar
    33     4    30   1
    34     4    31   1
    35     5    32   1
    36     5    33   1
    37     5    34   1
    38     8    35   1
    39     9    36   1
    40    10    37   1
    41    11    38   1
    42    12    39   1
    43    13    40   1
    44    14    41   1
    45    15    42   1
    46    16    43   1
    47    17    44   1
    48    17    45   1
    49    18    46   1
@<TRIPOS>SUBSTRUCTURE
     1  FG5      1

