@<TRIPOS>MOLECULE
3ivg_ligand_030
    46    49
SMALL
GAST_HUCK
****
This file was generated by PARSER (from files_GN.cpp)

@<TRIPOS>ATOM
      1 C           4.3825  -16.6882   36.8033 C.2         1 FG5       0.0635
      2 N           5.0779  -14.8533   38.1987 N.pl3       1 FG5      -0.2501
      3 O           3.4575  -16.8264   35.8272 O.co2       1 FG5      -0.5663
      4 CA          4.0975  -15.8911   38.0083 C.3         1 FG5       0.1031
      5 CAA        10.6897  -14.5336   40.9271 C.3         1 FG5       0.0567
      6 OAC         6.6802  -10.7894   34.9973 O.2         1 FG5      -0.1460
      7 OAD         4.5991  -10.8445   33.4861 O.2         1 FG5      -0.1460
      8 CAF         7.8004  -16.1522   30.8005 C.ar        1 FG5      -0.0767
      9 CAG         7.2601  -17.0169   31.7789 C.ar        1 FG5      -0.0734
     10 CAH         7.5519  -15.5396   40.9357 C.ar        1 FG5      -0.0489
     11 CAI         7.7004  -14.7534   30.9498 C.ar        1 FG5      -0.0712
     12 CAJ         6.6087  -16.4930   32.9160 C.ar        1 FG5      -0.0310
     13 CAK         6.4224  -15.7797   40.1300 C.ar        1 FG5      -0.0524
     14 CAL         7.9662  -13.4396   39.7615 C.ar        1 FG5      -0.0541
     15 CAM         6.2668  -12.9794   37.9298 C.2         1 FG5      -0.0688
     16 CAN         6.8005  -12.9499   32.4994 C.2         1 FG5      -0.0189
     17 CAO         4.2037  -13.2655   36.4250 C.3         1 FG5       0.0846
     18 NAQ         4.4644  -11.9808   35.8806 N.am        1 FG5      -0.2288
     19 OAR         9.4362  -14.1833   41.5435 O.3         1 FG5      -0.3308
     20 OAS         5.9416  -14.3530   34.0187 O.3         1 FG5      -0.2287
     21 CAU         8.3460  -14.3869   40.7404 C.ar        1 FG5       0.0691
     22 CAV         5.1605  -13.7014   37.4745 C.2         1 FG5       0.0618
     23 CAW         6.0926  -13.0447   33.6915 C.2         1 FG5       0.2522
     24 CAX         7.0588  -14.2458   32.0905 C.ar        1 FG5      -0.0094
     25 CAY         6.8426  -13.7046   38.9589 C.ar        1 FG5      -0.0477
     26 CAZ         6.5216  -15.0988   33.0519 C.ar        1 FG5       0.1269
     27 CBA         6.0758  -14.8591   39.1181 C.ar        1 FG5       0.0540
     28 SBC         5.4441  -11.6804   34.5428 S.o2        1 FG5       0.1039
     29 OXT         5.5552  -17.3518   36.6928 O.co2       1 FG5      -0.5663
     30 H1          4.0731  -16.5837   38.8491 H           1 FG5       0.0766
     31 H2          3.1032  -15.4434   37.9453 H           1 FG5       0.0766
     32 H3         11.4780  -14.4184   41.6720 H           1 FG5       0.0573
     33 H4         10.9141  -13.8704   40.0882 H           1 FG5       0.0573
     34 H5         10.7001  -15.5701   40.5797 H           1 FG5       0.0573
     35 H6          8.2658  -16.5456   29.9783 H           1 FG5       0.0527
     36 H7          7.3373  -18.0281   31.6607 H           1 FG5       0.0542
     37 H8          7.7949  -16.2099   41.6679 H           1 FG5       0.0453
     38 H9          8.0776  -14.1190   30.2454 H           1 FG5       0.0546
     39 H10         6.2024  -17.1107   33.6192 H           1 FG5       0.0562
     40 H11         5.8636  -16.6162   40.2890 H           1 FG5       0.0517
     41 H12         8.5020  -12.5811   39.6302 H           1 FG5       0.0403
     42 H13         6.5983  -12.0784   37.5841 H           1 FG5       0.0155
     43 H14         7.0519  -12.0925   32.0065 H           1 FG5       0.0361
     44 H15         4.1558  -14.0098   35.6356 H           1 FG5       0.0685
     45 H16         3.2096  -13.2195   36.8655 H           1 FG5       0.0685
     46 H17         4.2674  -11.2240   36.4480 H           1 FG5       0.1706
@<TRIPOS>BOND
     1     1     3  ar
     2     4     1   1
     3     1    29  ar
     4     2     4   1
     5    22     2   1
     6     2    27   1
     7    19     5   1
     8    28     6   2
     9    28     7   2
    10     9     8  ar
    11    11     8  ar
    12    12     9  ar
    13    13    10  ar
    14    21    10  ar
    15    24    11  ar
    16    26    12  ar
    17    27    13  ar
    18    14    21  ar
    19    25    14  ar
    20    22    15   2
    21    15    25   1
    22    23    16   2
    23    16    24   1
    24    18    17   1
    25    17    22   1
    26    28    18  am
    27    21    19   1
    28    23    20   1
    29    20    26   1
    30    23    28   1
    31    24    26  ar
    32    25    27  ar
    33     4    30   1
    34     4    31   1
    35     5    32   1
    36     5    33   1
    37     5    34   1
    38     8    35   1
    39     9    36   1
    40    10    37   1
    41    11    38   1
    42    12    39   1
    43    13    40   1
    44    14    41   1
    45    15    42   1
    46    16    43   1
    47    17    44   1
    48    17    45   1
    49    18    46   1
@<TRIPOS>SUBSTRUCTURE
     1  FG5      1

