@<TRIPOS>MOLECULE
3ivg_ligand_066
    46    49
SMALL
GAST_HUCK
****
This file was generated by PARSER (from files_GN.cpp)

@<TRIPOS>ATOM
      1 C           1.1599  -14.9980   37.0004 C.2         1 FG5       0.0635
      2 N           1.0055  -12.5458   37.2526 N.pl3       1 FG5      -0.2501
      3 O           1.5587  -15.3256   38.2439 O.co2       1 FG5      -0.5663
      4 CA          0.4051  -13.7615   36.7517 C.3         1 FG5       0.1031
      5 CAA        -0.9109   -7.8588   40.9448 C.3         1 FG5       0.0567
      6 OAC         4.2943  -14.0892   39.1584 O.2         1 FG5      -0.1460
      7 OAD         4.9502  -11.6081   39.5720 O.2         1 FG5      -0.1460
      8 CAF        11.2490  -14.3684   38.5395 C.ar        1 FG5      -0.0767
      9 CAG        11.0140  -14.5726   39.9183 C.ar        1 FG5      -0.0734
     10 CAH        -1.5137  -10.1388   38.7085 C.ar        1 FG5      -0.0489
     11 CAI        10.2022  -13.9526   37.6908 C.ar        1 FG5      -0.0712
     12 CAJ         9.7292  -14.3649   40.4650 C.ar        1 FG5      -0.0310
     13 CAK        -1.0691  -11.3523   38.1345 C.ar        1 FG5      -0.0524
     14 CAL         0.7565   -9.2438   38.6354 C.ar        1 FG5      -0.0541
     15 CAM         2.4085  -10.8423   37.6098 C.2         1 FG5      -0.0688
     16 CAN         7.7243  -13.3573   37.6885 C.2         1 FG5      -0.0189
     17 CAO         3.4538  -12.7915   36.4289 C.3         1 FG5       0.0846
     18 NAQ         4.7250  -12.4851   37.0107 N.am        1 FG5      -0.2288
     19 OAR        -1.0465   -7.9139   39.5134 O.3         1 FG5      -0.3308
     20 OAS         7.3979  -13.6930   39.8869 O.3         1 FG5      -0.2287
     21 CAU        -0.6025   -9.0921   38.9793 C.ar        1 FG5       0.0691
     22 CAV         2.3015  -12.1370   37.1029 C.2         1 FG5       0.0618
     23 CAW         6.7962  -13.3307   38.7277 C.2         1 FG5       0.2522
     24 CAX         8.9252  -13.7554   38.2469 C.ar        1 FG5      -0.0094
     25 CAY         1.1709  -10.4644   38.0699 C.ar        1 FG5      -0.0477
     26 CAZ         8.6953  -13.9576   39.6081 C.ar        1 FG5       0.1269
     27 CBA         0.3001  -11.5254   37.8274 C.ar        1 FG5       0.0540
     28 SBC         5.1347  -12.8562   38.6043 S.o2        1 FG5       0.1039
     29 OXT         1.4046  -15.8661   35.9900 O.co2       1 FG5      -0.5663
     30 H1         -0.5733  -13.9254   37.2048 H           1 FG5       0.0766
     31 H2          0.2480  -13.6417   35.6774 H           1 FG5       0.0766
     32 H3         -1.2826   -6.8919   41.2855 H           1 FG5       0.0573
     33 H4          0.1353   -7.9469   41.2515 H           1 FG5       0.0573
     34 H5         -1.5008   -8.6416   41.4296 H           1 FG5       0.0573
     35 H6         12.1858  -14.5166   38.1529 H           1 FG5       0.0527
     36 H7         11.7771  -14.8667   40.5299 H           1 FG5       0.0542
     37 H8         -2.5068  -10.0127   38.9204 H           1 FG5       0.0453
     38 H9         10.3681  -13.7946   36.6953 H           1 FG5       0.0546
     39 H10         9.5543  -14.5013   41.4634 H           1 FG5       0.0562
     40 H11        -1.7546  -12.0830   37.9352 H           1 FG5       0.0517
     41 H12         1.4240   -8.4828   38.7800 H           1 FG5       0.0403
     42 H13         3.2426  -10.2539   37.6172 H           1 FG5       0.0155
     43 H14         7.5647  -13.1199   36.7102 H           1 FG5       0.0361
     44 H15         3.3390  -13.8850   36.4110 H           1 FG5       0.0685
     45 H16         3.4774  -12.4319   35.3990 H           1 FG5       0.0685
     46 H17         5.4576  -12.2868   36.4043 H           1 FG5       0.1706
@<TRIPOS>BOND
     1     1     3  ar
     2     4     1   1
     3     1    29  ar
     4     2     4   1
     5    22     2   1
     6     2    27   1
     7    19     5   1
     8    28     6   2
     9    28     7   2
    10     9     8  ar
    11    11     8  ar
    12    12     9  ar
    13    13    10  ar
    14    21    10  ar
    15    24    11  ar
    16    26    12  ar
    17    27    13  ar
    18    14    21  ar
    19    25    14  ar
    20    22    15   2
    21    15    25   1
    22    23    16   2
    23    16    24   1
    24    18    17   1
    25    17    22   1
    26    28    18  am
    27    21    19   1
    28    23    20   1
    29    20    26   1
    30    23    28   1
    31    24    26  ar
    32    25    27  ar
    33     4    30   1
    34     4    31   1
    35     5    32   1
    36     5    33   1
    37     5    34   1
    38     8    35   1
    39     9    36   1
    40    10    37   1
    41    11    38   1
    42    12    39   1
    43    13    40   1
    44    14    41   1
    45    15    42   1
    46    16    43   1
    47    17    44   1
    48    17    45   1
    49    18    46   1
@<TRIPOS>SUBSTRUCTURE
     1  FG5      1

