@<TRIPOS>MOLECULE
3ivg_ligand_027
    46    49
SMALL
GAST_HUCK
****
This file was generated by PARSER (from files_GN.cpp)

@<TRIPOS>ATOM
      1 C           2.3559  -14.0698   38.5240 C.2         1 FG5       0.0635
      2 N           1.1071  -13.6580   36.4852 N.pl3       1 FG5      -0.2501
      3 O           3.2553  -13.0618   38.5723 O.co2       1 FG5      -0.5663
      4 CA          1.0281  -13.8657   37.9099 C.3         1 FG5       0.1031
      5 CAA         1.3721   -8.7783   32.5446 C.3         1 FG5       0.0567
      6 OAC         1.7464  -17.0367   32.4677 O.2         1 FG5      -0.1460
      7 OAD         0.0267  -18.8264   33.0425 O.2         1 FG5      -0.1460
      8 CAF         5.3230  -21.5148   36.4218 C.ar        1 FG5      -0.0767
      9 CAG         5.6499  -20.3184   37.1004 C.ar        1 FG5      -0.0734
     10 CAH         2.0616  -10.1508   35.5393 C.ar        1 FG5      -0.0489
     11 CAI         4.2725  -21.5364   35.4807 C.ar        1 FG5      -0.0712
     12 CAJ         4.9364  -19.1313   36.8363 C.ar        1 FG5      -0.0310
     13 CAK         1.7290  -11.2049   36.4190 C.ar        1 FG5      -0.0524
     14 CAL         1.8192  -11.6463   33.6205 C.ar        1 FG5      -0.0541
     15 CAM         1.1183  -13.9957   34.2739 C.2         1 FG5      -0.0688
     16 CAN         2.5190  -20.0491   34.3690 C.2         1 FG5      -0.0189
     17 CAO         0.4754  -15.9940   35.7361 C.3         1 FG5       0.0846
     18 NAQ         0.0959  -16.7132   34.5687 N.am        1 FG5      -0.2288
     19 OAR         2.4518   -9.3134   33.3285 O.3         1 FG5      -0.3308
     20 OAS         3.0963  -18.1656   35.4443 O.3         1 FG5      -0.2287
     21 CAU         2.0956  -10.3580   34.1418 C.ar        1 FG5       0.0691
     22 CAV         0.8772  -14.5865   35.5142 C.2         1 FG5       0.0618
     23 CAW         2.2433  -18.6949   34.5364 C.2         1 FG5       0.2522
     24 CAX         3.5705  -20.3469   35.2217 C.ar        1 FG5      -0.0094
     25 CAY         1.4736  -12.6787   34.5094 C.ar        1 FG5      -0.0477
     26 CAZ         3.9001  -19.1619   35.8870 C.ar        1 FG5       0.1269
     27 CBA         1.4417  -12.4846   35.8893 C.ar        1 FG5       0.0540
     28 SBC         1.0443  -17.7844   33.6815 S.o2        1 FG5       0.1039
     29 OXT         2.7796  -15.3158   38.8381 O.co2       1 FG5      -0.5663
     30 H1          0.5325  -13.0152   38.3817 H           1 FG5       0.0766
     31 H2          0.4136  -14.7349   38.1478 H           1 FG5       0.0766
     32 H3          1.7338   -7.8843   32.0378 H           1 FG5       0.0573
     33 H4          0.5196   -8.4938   33.1662 H           1 FG5       0.0573
     34 H5          1.0456   -9.4902   31.7837 H           1 FG5       0.0573
     35 H6          5.8588  -22.3615   36.6109 H           1 FG5       0.0527
     36 H7          6.4122  -20.3021   37.7758 H           1 FG5       0.0542
     37 H8          2.2808   -9.2295   35.9255 H           1 FG5       0.0453
     38 H9          4.0389  -22.4010   34.9845 H           1 FG5       0.0546
     39 H10         5.1564  -18.2567   37.3221 H           1 FG5       0.0562
     40 H11         1.6916  -11.0343   37.4297 H           1 FG5       0.0517
     41 H12         1.8619  -11.8246   32.6146 H           1 FG5       0.0403
     42 H13         1.0636  -14.4339   33.3569 H           1 FG5       0.0155
     43 H14         2.0478  -20.6986   33.7409 H           1 FG5       0.0361
     44 H15         1.2730  -16.4965   36.2790 H           1 FG5       0.0685
     45 H16        -0.4147  -15.9985   36.3654 H           1 FG5       0.0685
     46 H17        -0.7729  -16.5096   34.1954 H           1 FG5       0.1706
@<TRIPOS>BOND
     1     1     3  ar
     2     4     1   1
     3     1    29  ar
     4     2     4   1
     5    22     2   1
     6     2    27   1
     7    19     5   1
     8    28     6   2
     9    28     7   2
    10     9     8  ar
    11    11     8  ar
    12    12     9  ar
    13    13    10  ar
    14    21    10  ar
    15    24    11  ar
    16    26    12  ar
    17    27    13  ar
    18    14    21  ar
    19    25    14  ar
    20    22    15   2
    21    15    25   1
    22    23    16   2
    23    16    24   1
    24    18    17   1
    25    17    22   1
    26    28    18  am
    27    21    19   1
    28    23    20   1
    29    20    26   1
    30    23    28   1
    31    24    26  ar
    32    25    27  ar
    33     4    30   1
    34     4    31   1
    35     5    32   1
    36     5    33   1
    37     5    34   1
    38     8    35   1
    39     9    36   1
    40    10    37   1
    41    11    38   1
    42    12    39   1
    43    13    40   1
    44    14    41   1
    45    15    42   1
    46    16    43   1
    47    17    44   1
    48    17    45   1
    49    18    46   1
@<TRIPOS>SUBSTRUCTURE
     1  FG5      1

