@<TRIPOS>MOLECULE
3ivg_ligand_040
    46    49
SMALL
GAST_HUCK
****
This file was generated by PARSER (from files_GN.cpp)

@<TRIPOS>ATOM
      1 C           1.8466  -14.6512   36.5554 C.2         1 FG5       0.0635
      2 N           2.2268  -12.5171   35.3983 N.pl3       1 FG5      -0.2501
      3 O           1.6998  -15.2376   37.7721 O.co2       1 FG5      -0.5663
      4 CA          1.4592  -13.2476   36.3890 C.3         1 FG5       0.1031
      5 CAA         0.8641  -10.2198   29.7144 C.3         1 FG5       0.0567
      6 OAC         5.0335  -16.0602   36.5383 O.2         1 FG5      -0.1460
      7 OAD         3.9263  -15.7984   38.8170 O.2         1 FG5      -0.1460
      8 CAF        10.2358  -14.4290   41.1566 C.ar        1 FG5      -0.0767
      9 CAG        10.8097  -14.3383   39.8657 C.ar        1 FG5      -0.0734
     10 CAH         0.1251  -10.8542   32.7595 C.ar        1 FG5      -0.0489
     11 CAI         8.8389  -14.6025   41.3040 C.ar        1 FG5      -0.0712
     12 CAJ        10.0020  -14.4306   38.7148 C.ar        1 FG5      -0.0310
     13 CAK         0.3730  -11.6451   33.9122 C.ar        1 FG5      -0.0524
     14 CAL         2.5149  -10.4309   32.5039 C.ar        1 FG5      -0.0541
     15 CAM         3.9131  -11.5559   34.2772 C.2         1 FG5      -0.0688
     16 CAN         6.6949  -14.8905   39.9738 C.2         1 FG5      -0.0189
     17 CAO         4.6801  -12.8881   36.2335 C.3         1 FG5       0.0846
     18 NAQ         4.2839  -13.6249   37.3810 N.am        1 FG5      -0.2288
     19 OAR         0.9109   -9.4908   30.9529 O.3         1 FG5      -0.3308
     20 OAS         7.6517  -14.7420   37.9349 O.3         1 FG5      -0.2287
     21 CAU         1.1780  -10.2670   32.0476 C.ar        1 FG5       0.0691
     22 CAV         3.5812  -12.3738   35.3709 C.2         1 FG5       0.0618
     23 CAW         6.4772  -14.9152   38.5998 C.2         1 FG5       0.2522
     24 CAX         8.0554  -14.7031   40.1472 C.ar        1 FG5      -0.0094
     25 CAY         2.7350  -11.2221   33.6474 C.ar        1 FG5      -0.0477
     26 CAZ         8.6201  -14.6157   38.8732 C.ar        1 FG5       0.1269
     27 CBA         1.6997  -11.8271   34.3539 C.ar        1 FG5       0.0540
     28 SBC         4.9572  -15.1217   37.8154 S.o2        1 FG5       0.1039
     29 OXT         2.5041  -15.3303   35.5873 O.co2       1 FG5      -0.5663
     30 H1          1.5488  -12.7183   37.3381 H           1 FG5       0.0766
     31 H2          0.3947  -13.2403   36.1572 H           1 FG5       0.0766
     32 H3          0.5222   -9.5412   28.9333 H           1 FG5       0.0573
     33 H4          0.1683  -11.0600   29.7660 H           1 FG5       0.0573
     34 H5          1.8554  -10.5853   29.4379 H           1 FG5       0.0573
     35 H6         10.8268  -14.3510   41.9828 H           1 FG5       0.0527
     36 H7         11.8135  -14.1877   39.7733 H           1 FG5       0.0542
     37 H8         -0.8386  -10.7204   32.4545 H           1 FG5       0.0453
     38 H9          8.4158  -14.6661   42.2342 H           1 FG5       0.0546
     39 H10        10.4165  -14.3746   37.7786 H           1 FG5       0.0562
     40 H11        -0.4108  -12.0723   34.3965 H           1 FG5       0.0517
     41 H12         3.2955  -10.0044   32.0114 H           1 FG5       0.0403
     42 H13         4.8488  -11.2667   33.9958 H           1 FG5       0.0155
     43 H14         5.9928  -14.9885   40.7083 H           1 FG5       0.0361
     44 H15         5.3499  -13.4805   35.6098 H           1 FG5       0.0685
     45 H16         5.2532  -12.0334   36.6048 H           1 FG5       0.0685
     46 H17         3.7248  -13.1930   38.0369 H           1 FG5       0.1706
@<TRIPOS>BOND
     1     1     3  ar
     2     4     1   1
     3     1    29  ar
     4     2     4   1
     5    22     2   1
     6     2    27   1
     7    19     5   1
     8    28     6   2
     9    28     7   2
    10     9     8  ar
    11    11     8  ar
    12    12     9  ar
    13    13    10  ar
    14    21    10  ar
    15    24    11  ar
    16    26    12  ar
    17    27    13  ar
    18    14    21  ar
    19    25    14  ar
    20    22    15   2
    21    15    25   1
    22    23    16   2
    23    16    24   1
    24    18    17   1
    25    17    22   1
    26    28    18  am
    27    21    19   1
    28    23    20   1
    29    20    26   1
    30    23    28   1
    31    24    26  ar
    32    25    27  ar
    33     4    30   1
    34     4    31   1
    35     5    32   1
    36     5    33   1
    37     5    34   1
    38     8    35   1
    39     9    36   1
    40    10    37   1
    41    11    38   1
    42    12    39   1
    43    13    40   1
    44    14    41   1
    45    15    42   1
    46    16    43   1
    47    17    44   1
    48    17    45   1
    49    18    46   1
@<TRIPOS>SUBSTRUCTURE
     1  FG5      1

