@<TRIPOS>MOLECULE
3ivg_ligand_018
    46    49
SMALL
GAST_HUCK
****
This file was generated by PARSER (from files_GN.cpp)

@<TRIPOS>ATOM
      1 C           1.7921  -14.4160   38.1086 C.2         1 FG5       0.0635
      2 N           2.5537  -12.4081   36.9851 N.pl3       1 FG5      -0.2501
      3 O           0.9347  -15.0860   37.3022 O.co2       1 FG5      -0.5663
      4 CA          1.8201  -12.9445   38.1115 C.3         1 FG5       0.1031
      5 CAA         1.4354  -11.4056   30.9461 C.3         1 FG5       0.0567
      6 OAC         8.2736  -14.3275   37.0313 O.2         1 FG5      -0.1460
      7 OAD         7.1507  -13.1187   35.0333 O.2         1 FG5      -0.1460
      8 CAF         2.8749  -18.5239   35.1550 C.ar        1 FG5      -0.0767
      9 CAG         3.8778  -19.2934   35.7936 C.ar        1 FG5      -0.0734
     10 CAH         0.3943  -11.4093   34.0812 C.ar        1 FG5      -0.0489
     11 CAI         3.0440  -17.1315   34.9929 C.ar        1 FG5      -0.0712
     12 CAJ         5.0428  -18.6768   36.2949 C.ar        1 FG5      -0.0310
     13 CAK         0.6735  -11.9090   35.3710 C.ar        1 FG5      -0.0524
     14 CAL         2.7790  -10.9943   33.7022 C.ar        1 FG5      -0.0541
     15 CAM         4.2194  -11.7094   35.6599 C.2         1 FG5      -0.0688
     16 CAN         4.6558  -15.2206   35.4861 C.2         1 FG5      -0.0189
     17 CAO         4.8874  -12.6975   37.9318 C.3         1 FG5       0.0846
     18 NAQ         6.2402  -12.6819   37.4964 N.am        1 FG5      -0.2288
     19 OAR         1.1551  -10.4666   31.9986 O.3         1 FG5      -0.3308
     20 OAS         6.2057  -16.4814   36.5155 O.3         1 FG5      -0.2287
     21 CAU         1.4413  -10.9552   33.2457 C.ar        1 FG5       0.0691
     22 CAV         3.9070  -12.2862   36.8932 C.2         1 FG5       0.0618
     23 CAW         5.8910  -15.2128   36.1352 C.2         1 FG5       0.2522
     24 CAX         4.2110  -16.5335   35.4930 C.ar        1 FG5      -0.0094
     25 CAY         3.0301  -11.5089   34.9859 C.ar        1 FG5      -0.0477
     26 CAZ         5.1896  -17.2911   36.1363 C.ar        1 FG5       0.1269
     27 CBA         2.0074  -11.9601   35.8266 C.ar        1 FG5       0.0540
     28 SBC         6.8884  -13.8248   36.4345 S.o2        1 FG5       0.1039
     29 OXT         2.6106  -15.1280   38.9146 O.co2       1 FG5      -0.5663
     30 H1          2.2768  -12.5908   39.0374 H           1 FG5       0.0766
     31 H2          0.7883  -12.5884   38.1238 H           1 FG5       0.0766
     32 H3          1.1487  -10.9474   29.9997 H           1 FG5       0.0573
     33 H4          0.8594  -12.3256   31.0699 H           1 FG5       0.0573
     34 H5          2.5015  -11.6464   30.9041 H           1 FG5       0.0573
     35 H6          2.0343  -18.9794   34.7973 H           1 FG5       0.0527
     36 H7          3.7562  -20.3048   35.8806 H           1 FG5       0.0542
     37 H8         -0.5732  -11.3918   33.7438 H           1 FG5       0.0453
     38 H9          2.3311  -16.5706   34.5223 H           1 FG5       0.0546
     39 H10         5.7649  -19.2319   36.7606 H           1 FG5       0.0562
     40 H11        -0.0893  -12.2500   35.9579 H           1 FG5       0.0517
     41 H12         3.5450  -10.6800   33.1090 H           1 FG5       0.0403
     42 H13         5.1489  -11.4841   35.3054 H           1 FG5       0.0155
     43 H14         4.1688  -14.4162   35.0817 H           1 FG5       0.0361
     44 H15         4.8007  -12.0075   38.7709 H           1 FG5       0.0685
     45 H16         4.6347  -13.6985   38.2851 H           1 FG5       0.0685
     46 H17         6.7285  -11.8521   37.6058 H           1 FG5       0.1706
@<TRIPOS>BOND
     1     1     3  ar
     2     4     1   1
     3     1    29  ar
     4     2     4   1
     5    22     2   1
     6     2    27   1
     7    19     5   1
     8    28     6   2
     9    28     7   2
    10     9     8  ar
    11    11     8  ar
    12    12     9  ar
    13    13    10  ar
    14    21    10  ar
    15    24    11  ar
    16    26    12  ar
    17    27    13  ar
    18    14    21  ar
    19    25    14  ar
    20    22    15   2
    21    15    25   1
    22    23    16   2
    23    16    24   1
    24    18    17   1
    25    17    22   1
    26    28    18  am
    27    21    19   1
    28    23    20   1
    29    20    26   1
    30    23    28   1
    31    24    26  ar
    32    25    27  ar
    33     4    30   1
    34     4    31   1
    35     5    32   1
    36     5    33   1
    37     5    34   1
    38     8    35   1
    39     9    36   1
    40    10    37   1
    41    11    38   1
    42    12    39   1
    43    13    40   1
    44    14    41   1
    45    15    42   1
    46    16    43   1
    47    17    44   1
    48    17    45   1
    49    18    46   1
@<TRIPOS>SUBSTRUCTURE
     1  FG5      1

