@<TRIPOS>MOLECULE
3ivg_ligand_032
    46    49
SMALL
GAST_HUCK
****
This file was generated by PARSER (from files_GN.cpp)

@<TRIPOS>ATOM
      1 C           2.0302  -14.8394   37.4749 C.2         1 FG5       0.0635
      2 N           2.2203  -12.4394   37.1482 N.pl3       1 FG5      -0.2501
      3 O           2.7762  -15.4598   38.4272 O.co2       1 FG5      -0.5663
      4 CA          2.6153  -13.7443   36.6770 C.3         1 FG5       0.1031
      5 CAA        -0.3996   -7.5690   34.1664 C.3         1 FG5       0.0567
      6 OAC         5.6637  -14.7422   39.6322 O.2         1 FG5      -0.1460
      7 OAD         7.4599  -12.8854   39.5068 O.2         1 FG5      -0.1460
      8 CAF         6.6237  -15.3341   32.8069 C.ar        1 FG5      -0.0767
      9 CAG         7.5600  -14.2763   32.7466 C.ar        1 FG5      -0.0734
     10 CAH        -0.1825  -10.6244   34.9066 C.ar        1 FG5      -0.0489
     11 CAI         6.0690  -15.7289   34.0428 C.ar        1 FG5      -0.0712
     12 CAJ         7.9307  -13.5834   33.9169 C.ar        1 FG5      -0.0310
     13 CAK         0.6085  -11.7114   35.3402 C.ar        1 FG5      -0.0524
     14 CAL         0.5679   -9.2905   36.8114 C.ar        1 FG5      -0.0541
     15 CAM         2.1527  -10.5419   38.3392 C.2         1 FG5      -0.0688
     16 CAN         6.0324  -15.1294   36.5163 C.2         1 FG5      -0.0189
     17 CAO         3.7251  -12.3333   39.2166 C.3         1 FG5       0.0846
     18 NAQ         5.0079  -12.3154   38.5940 N.am        1 FG5      -0.2288
     19 OAR        -0.9703   -8.3621   35.2214 O.3         1 FG5      -0.3308
     20 OAS         7.4310  -13.3733   36.3518 O.3         1 FG5      -0.2287
     21 CAU        -0.1846   -9.4064   35.6242 C.ar        1 FG5       0.0691
     22 CAV         2.7098  -11.8191   38.2601 C.2         1 FG5       0.0618
     23 CAW         6.6290  -14.0705   37.1950 C.2         1 FG5       0.2522
     24 CAX         6.4494  -15.0285   35.2003 C.ar        1 FG5      -0.0094
     25 CAY         1.3294  -10.3914   37.2384 C.ar        1 FG5      -0.0477
     26 CAZ         7.3422  -13.9593   35.1353 C.ar        1 FG5       0.1269
     27 CBA         1.3756  -11.5855   36.5176 C.ar        1 FG5       0.0540
     28 SBC         6.1927  -13.5098   38.7755 S.o2        1 FG5       0.1039
     29 OXT         0.9359  -15.4890   37.0070 O.co2       1 FG5      -0.5663
     30 H1          2.3391  -13.8914   35.6268 H           1 FG5       0.0766
     31 H2          3.7047  -13.8088   36.7075 H           1 FG5       0.0766
     32 H3         -1.0793   -6.7428   33.9549 H           1 FG5       0.0573
     33 H4         -0.2832   -8.1544   33.2519 H           1 FG5       0.0573
     34 H5          0.5668   -7.1490   34.4553 H           1 FG5       0.0573
     35 H6          6.3372  -15.8105   31.9478 H           1 FG5       0.0527
     36 H7          7.9560  -14.0004   31.8459 H           1 FG5       0.0542
     37 H8         -0.7538  -10.7225   34.0664 H           1 FG5       0.0453
     38 H9          5.3827  -16.4847   34.0912 H           1 FG5       0.0546
     39 H10         8.5891  -12.8028   33.8800 H           1 FG5       0.0562
     40 H11         0.6080  -12.5839   34.8068 H           1 FG5       0.0517
     41 H12         0.5605   -8.4206   37.3486 H           1 FG5       0.0403
     42 H13         2.3497   -9.8335   39.0441 H           1 FG5       0.0155
     43 H14         5.3362  -15.7807   36.8834 H           1 FG5       0.0361
     44 H15         3.7802  -11.7027   40.1074 H           1 FG5       0.0685
     45 H16         3.4375  -13.3398   39.5432 H           1 FG5       0.0685
     46 H17         5.2647  -11.4953   38.1375 H           1 FG5       0.1706
@<TRIPOS>BOND
     1     1     3  ar
     2     4     1   1
     3     1    29  ar
     4     2     4   1
     5    22     2   1
     6     2    27   1
     7    19     5   1
     8    28     6   2
     9    28     7   2
    10     9     8  ar
    11    11     8  ar
    12    12     9  ar
    13    13    10  ar
    14    21    10  ar
    15    24    11  ar
    16    26    12  ar
    17    27    13  ar
    18    14    21  ar
    19    25    14  ar
    20    22    15   2
    21    15    25   1
    22    23    16   2
    23    16    24   1
    24    18    17   1
    25    17    22   1
    26    28    18  am
    27    21    19   1
    28    23    20   1
    29    20    26   1
    30    23    28   1
    31    24    26  ar
    32    25    27  ar
    33     4    30   1
    34     4    31   1
    35     5    32   1
    36     5    33   1
    37     5    34   1
    38     8    35   1
    39     9    36   1
    40    10    37   1
    41    11    38   1
    42    12    39   1
    43    13    40   1
    44    14    41   1
    45    15    42   1
    46    16    43   1
    47    17    44   1
    48    17    45   1
    49    18    46   1
@<TRIPOS>SUBSTRUCTURE
     1  FG5      1

