@<TRIPOS>MOLECULE
3jvs_ligand_007
    52    54
SMALL
GAST_HUCK
****
This file was generated by PARSER (from files_GN.cpp)

@<TRIPOS>ATOM
      1 C1         20.1813  -10.6009   24.4722 C.ar        1 AGY       0.0113
      2 N1         21.0309   -8.3912   25.1209 N.am        1 AGY      -0.2122
      3 O1         19.3598   -7.4751   23.9586 O.2         1 AGY      -0.3871
      4 C2         20.4176   -9.5694   25.4273 C.ar        1 AGY       0.0814
      5 N2         21.2178   -6.3533   24.0444 N.am        1 AGY      -0.1624
      6 O2         23.1987   -5.9042   22.2836 O.2         1 AGY      -0.3706
      7 C3         19.5247  -11.7982   24.8906 C.ar        1 AGY      -0.0315
      8 N3         22.4736   -6.1701   24.3659 N.am        1 AGY      -0.1773
      9 O3         27.4839   -3.6610   27.1403 O.2         1 AGY       0.1875
     10 C4         20.5983  -10.4956   23.1205 C.ar        1 AGY      -0.0551
     11 N4         26.6076   -3.5332   26.1824 N.2         1 AGY       0.3329
     12 O4         25.8077   -2.6623   26.4115 O.2         1 AGY       0.1875
     13 C5         20.0417   -9.7585   26.7718 C.ar        1 AGY      -0.0435
     14 C6         19.1207  -11.9446   26.2340 C.ar        1 AGY      -0.0747
     15 C7         19.2843  -12.8348   23.9597 C.ar        1 AGY      -0.0608
     16 C8         20.3523  -11.5340   22.2039 C.ar        1 AGY      -0.0647
     17 C9         19.3843  -10.9323   27.1707 C.ar        1 AGY      -0.0816
     18 C10        20.5015   -7.4059   24.4025 C.2         1 AGY       0.3134
     19 C11        19.6968  -12.7016   22.6238 C.ar        1 AGY      -0.0656
     20 C12        23.4332   -5.9092   23.4879 C.2         1 AGY       0.2462
     21 C13        24.7432   -5.7461   23.9118 C.ar        1 AGY       0.0865
     22 C14        25.1035   -4.7235   24.8037 C.ar        1 AGY       0.0278
     23 C15        25.7552   -6.6097   23.4654 C.ar        1 AGY      -0.0096
     24 C16        26.4475   -4.4916   25.2166 C.ar        1 AGY       0.2244
     25 C17        27.0894   -6.3974   23.8511 C.ar        1 AGY      -0.0290
     26 C18        27.5110   -5.2856   24.6369 C.ar        1 AGY      -0.0051
     27 C19        29.0132   -4.9463   24.6777 C.3         1 AGY      -0.0402
     28 C20        29.6846   -5.6106   25.9267 C.3         1 AGY      -0.0830
     29 C21        29.8297   -5.4834   23.4318 C.3         1 AGY      -0.0830
     30 C22        29.2865   -3.3960   24.6243 C.3         1 AGY      -0.0830
     31 H1         21.9019   -8.2374   25.5149 H           1 AGY       0.2311
     32 H2         20.8253   -5.7393   23.4069 H           1 AGY       0.2168
     33 H3         22.7295   -6.3221   25.2914 H           1 AGY       0.2163
     34 H4         21.0959   -9.6646   22.7864 H           1 AGY       0.0629
     35 H5         20.2236   -9.0280   27.4669 H           1 AGY       0.0440
     36 H6         18.6426  -12.7914   26.5461 H           1 AGY       0.0439
     37 H7         18.8153  -13.6961   24.2451 H           1 AGY       0.0587
     38 H8         20.6573  -11.4410   21.2303 H           1 AGY       0.0578
     39 H9         19.0970  -11.0455   28.1437 H           1 AGY       0.0564
     40 H10        19.5229  -13.4551   21.9562 H           1 AGY       0.0611
     41 H11        24.3549   -4.1370   25.1757 H           1 AGY       0.0821
     42 H12        25.5399   -7.4004   22.8510 H           1 AGY       0.0777
     43 H13        27.7584   -7.0774   23.4983 H           1 AGY       0.0872
     44 H14        30.7634   -5.4260   25.9348 H           1 AGY       0.0139
     45 H15        29.5272   -6.6931   25.9137 H           1 AGY       0.0139
     46 H16        29.2950   -5.2373   26.8683 H           1 AGY       0.0139
     47 H17        29.3448   -5.1787   22.5031 H           1 AGY       0.0139
     48 H18        29.9214   -6.5724   23.4332 H           1 AGY       0.0139
     49 H19        30.8550   -5.1040   23.4073 H           1 AGY       0.0139
     50 H20        29.0181   -2.8758   25.5358 H           1 AGY       0.0139
     51 H21        28.7300   -2.9500   23.7998 H           1 AGY       0.0139
     52 H22        30.3438   -3.1699   24.4674 H           1 AGY       0.0139
@<TRIPOS>BOND
     1     4     1  ar
     2     1     7  ar
     3     1    10  ar
     4     2     4   1
     5    18     2  am
     6    18     3   2
     7     4    13  ar
     8     8     5   1
     9     5    18  am
    10    20     6   2
    11     7    14  ar
    12     7    15  ar
    13    20     8  am
    14    11     9   2
    15    10    16  ar
    16    11    12   2
    17    24    11   1
    18    13    17  ar
    19    17    14  ar
    20    15    19  ar
    21    16    19  ar
    22    21    20   1
    23    22    21  ar
    24    21    23  ar
    25    22    24  ar
    26    23    25  ar
    27    24    26  ar
    28    25    26  ar
    29    26    27   1
    30    27    28   1
    31    27    29   1
    32    27    30   1
    33     2    31   1
    34     5    32   1
    35     8    33   1
    36    10    34   1
    37    13    35   1
    38    14    36   1
    39    15    37   1
    40    16    38   1
    41    17    39   1
    42    19    40   1
    43    22    41   1
    44    23    42   1
    45    25    43   1
    46    28    44   1
    47    28    45   1
    48    28    46   1
    49    29    47   1
    50    29    48   1
    51    29    49   1
    52    30    50   1
    53    30    51   1
    54    30    52   1
@<TRIPOS>SUBSTRUCTURE
     1  AGY      1

