@<TRIPOS>MOLECULE
3jvs_ligand_004
    52    54
SMALL
GAST_HUCK
****
This file was generated by PARSER (from files_GN.cpp)

@<TRIPOS>ATOM
      1 C1         33.3364   -7.1176   31.6515 C.ar        1 AGY       0.0113
      2 N1         33.8037   -5.7960   29.6819 N.am        1 AGY      -0.2122
      3 O1         35.8495   -6.2204   28.8936 O.2         1 AGY      -0.3871
      4 C2         34.0278   -6.0538   31.0042 C.ar        1 AGY       0.0814
      5 N2         34.2965   -5.9116   27.4172 N.am        1 AGY      -0.1624
      6 O2         32.6860   -7.3160   25.7331 O.2         1 AGY      -0.3706
      7 C3         33.5111   -7.3194   33.0528 C.ar        1 AGY      -0.0315
      8 N3         33.1030   -5.5506   27.0225 N.am        1 AGY      -0.1773
      9 O3         27.9164   -5.3516   22.4371 O.2         1 AGY       0.1875
     10 C4         32.4938   -8.0135   30.9388 C.ar        1 AGY      -0.0551
     11 N4         29.1286   -4.9601   22.7316 N.2         1 AGY       0.3329
     12 O4         29.9411   -5.1087   21.8429 O.2         1 AGY       0.1875
     13 C5         34.8646   -5.2079   31.7647 C.ar        1 AGY      -0.0435
     14 C6         34.3473   -6.4550   33.7906 C.ar        1 AGY      -0.0747
     15 C7         32.8492   -8.3891   33.7045 C.ar        1 AGY      -0.0608
     16 C8         31.8466   -9.0735   31.5969 C.ar        1 AGY      -0.0647
     17 C9         35.0209   -5.4026   33.1452 C.ar        1 AGY      -0.0816
     18 C10        34.6802   -5.9342   28.6793 C.2         1 AGY       0.3134
     19 C11        32.0235   -9.2609   32.9752 C.ar        1 AGY      -0.0656
     20 C12        32.3315   -6.1942   26.1356 C.2         1 AGY       0.2462
     21 C13        31.0950   -5.6895   25.7787 C.ar        1 AGY       0.0865
     22 C14        30.7238   -5.4768   24.4278 C.ar        1 AGY       0.0278
     23 C15        30.1252   -5.3621   26.7580 C.ar        1 AGY      -0.0096
     24 C16        29.4882   -4.8826   24.0526 C.ar        1 AGY       0.2244
     25 C17        28.9370   -4.7176   26.4115 C.ar        1 AGY      -0.0290
     26 C18        28.6417   -4.3231   25.0709 C.ar        1 AGY      -0.0051
     27 C19        27.5761   -3.2196   24.8917 C.3         1 AGY      -0.0402
     28 C20        28.1075   -1.9063   25.5811 C.3         1 AGY      -0.0830
     29 C21        27.2429   -2.7682   23.4151 C.3         1 AGY      -0.0830
     30 C22        26.2261   -3.6342   25.5557 C.3         1 AGY      -0.0830
     31 H1         32.8777   -5.7253   29.4130 H           1 AGY       0.2311
     32 H2         34.9345   -6.1973   26.7398 H           1 AGY       0.2168
     33 H3         32.7441   -4.7158   27.3880 H           1 AGY       0.2163
     34 H4         32.3559   -7.9113   29.9324 H           1 AGY       0.0629
     35 H5         35.3462   -4.4235   31.3178 H           1 AGY       0.0440
     36 H6         34.4749   -6.5794   34.7995 H           1 AGY       0.0439
     37 H7         32.9679   -8.5480   34.7067 H           1 AGY       0.0587
     38 H8         31.2511   -9.7117   31.0631 H           1 AGY       0.0578
     39 H9         35.6177   -4.7762   33.6879 H           1 AGY       0.0564
     40 H10        31.5517  -10.0374   33.4466 H           1 AGY       0.0611
     41 H11        31.3657   -5.8103   23.6995 H           1 AGY       0.0821
     42 H12        30.3079   -5.5677   27.7454 H           1 AGY       0.0777
     43 H13        28.3306   -4.4468   27.1853 H           1 AGY       0.0872
     44 H14        27.4201   -1.0710   25.4463 H           1 AGY       0.0139
     45 H15        29.0711   -1.6124   25.1670 H           1 AGY       0.0139
     46 H16        28.2281   -2.0260   26.6548 H           1 AGY       0.0139
     47 H17        26.5940   -3.4913   22.9179 H           1 AGY       0.0139
     48 H18        28.1520   -2.6306   22.8228 H           1 AGY       0.0139
     49 H19        26.6997   -1.8121   23.3980 H           1 AGY       0.0139
     50 H20        26.3223   -3.7513   26.6407 H           1 AGY       0.0139
     51 H21        25.8801   -4.5833   25.1378 H           1 AGY       0.0139
     52 H22        25.4506   -2.8790   25.3766 H           1 AGY       0.0139
@<TRIPOS>BOND
     1     4     1  ar
     2     1     7  ar
     3     1    10  ar
     4     2     4   1
     5    18     2  am
     6    18     3   2
     7     4    13  ar
     8     8     5   1
     9     5    18  am
    10    20     6   2
    11     7    14  ar
    12     7    15  ar
    13    20     8  am
    14    11     9   2
    15    10    16  ar
    16    11    12   2
    17    24    11   1
    18    13    17  ar
    19    17    14  ar
    20    15    19  ar
    21    16    19  ar
    22    21    20   1
    23    22    21  ar
    24    21    23  ar
    25    22    24  ar
    26    23    25  ar
    27    24    26  ar
    28    25    26  ar
    29    26    27   1
    30    27    28   1
    31    27    29   1
    32    27    30   1
    33     2    31   1
    34     5    32   1
    35     8    33   1
    36    10    34   1
    37    13    35   1
    38    14    36   1
    39    15    37   1
    40    16    38   1
    41    17    39   1
    42    19    40   1
    43    22    41   1
    44    23    42   1
    45    25    43   1
    46    28    44   1
    47    28    45   1
    48    28    46   1
    49    29    47   1
    50    29    48   1
    51    29    49   1
    52    30    50   1
    53    30    51   1
    54    30    52   1
@<TRIPOS>SUBSTRUCTURE
     1  AGY      1

