@<TRIPOS>MOLECULE
3jvs_ligand_005
    52    54
SMALL
GAST_HUCK
****
This file was generated by PARSER (from files_GN.cpp)

@<TRIPOS>ATOM
      1 C1         30.9934   -2.5489   15.6536 C.ar        1 AGY       0.0113
      2 N1         31.4805   -2.9300   17.9992 N.am        1 AGY      -0.2122
      3 O1         32.6276   -4.7509   17.4096 O.2         1 AGY      -0.3871
      4 C2         31.6649   -2.2205   16.8643 C.ar        1 AGY       0.0814
      5 N2         31.3669   -4.9371   19.1491 N.am        1 AGY      -0.1624
      6 O2         29.7808   -6.6376   20.5365 O.2         1 AGY      -0.3706
      7 C3         31.2795   -1.7952   14.4808 C.ar        1 AGY      -0.0315
      8 N3         30.4501   -4.5564   19.9939 N.am        1 AGY      -0.1773
      9 O3         27.6454   -3.3793   25.7163 O.2         1 AGY       0.1875
     10 C4         30.0349   -3.5973   15.5740 C.ar        1 AGY      -0.0551
     11 N4         28.0179   -4.4327   25.0522 N.2         1 AGY       0.3329
     12 O4         28.9106   -5.0455   25.5968 O.2         1 AGY       0.1875
     13 C5         32.5325   -1.1160   16.9269 C.ar        1 AGY      -0.0435
     14 C6         32.1865   -0.7127   14.5540 C.ar        1 AGY      -0.0747
     15 C7         30.6615   -2.1460   13.2589 C.ar        1 AGY      -0.0608
     16 C8         29.4305   -3.9354   14.3571 C.ar        1 AGY      -0.0647
     17 C9         32.8043   -0.3660   15.7699 C.ar        1 AGY      -0.0816
     18 C10        31.8667   -4.1893   18.1877 C.2         1 AGY       0.3134
     19 C11        29.7482   -3.2156   13.1957 C.ar        1 AGY      -0.0656
     20 C12        29.6831   -5.4123   20.6789 C.2         1 AGY       0.2462
     21 C13        28.6926   -4.9362   21.4790 C.ar        1 AGY       0.0865
     22 C14        28.7254   -5.1015   22.8842 C.ar        1 AGY       0.0278
     23 C15        27.6135   -4.2152   20.9210 C.ar        1 AGY      -0.0096
     24 C16        27.7127   -4.5538   23.7250 C.ar        1 AGY       0.2244
     25 C17        26.5527   -3.8006   21.7345 C.ar        1 AGY      -0.0290
     26 C18        26.5057   -4.0677   23.1302 C.ar        1 AGY      -0.0051
     27 C19        25.1497   -3.9338   23.8664 C.3         1 AGY      -0.0402
     28 C20        24.9232   -2.4567   24.2922 C.3         1 AGY      -0.0830
     29 C21        23.9378   -4.3441   22.9304 C.3         1 AGY      -0.0830
     30 C22        25.0254   -4.8978   25.1109 C.3         1 AGY      -0.0830
     31 H1         30.9848   -2.4977   18.7075 H           1 AGY       0.2311
     32 H2         31.6324   -5.8747   19.1549 H           1 AGY       0.2168
     33 H3         30.2790   -3.5996   20.1250 H           1 AGY       0.2163
     34 H4         29.7654   -4.1389   16.3974 H           1 AGY       0.0629
     35 H5         33.0034   -0.8633   17.7991 H           1 AGY       0.0440
     36 H6         32.4070   -0.1580   13.7213 H           1 AGY       0.0439
     37 H7         30.8853   -1.6359   12.3986 H           1 AGY       0.0587
     38 H8         28.7614   -4.7090   14.3090 H           1 AGY       0.0578
     39 H9         33.4665    0.4158   15.8125 H           1 AGY       0.0564
     40 H10        29.3110   -3.4660   12.3038 H           1 AGY       0.0611
     41 H11        29.5609   -5.5264   23.2939 H           1 AGY       0.0821
     42 H12        27.5757   -4.0457   19.9175 H           1 AGY       0.0777
     43 H13        25.7855   -3.3324   21.2544 H           1 AGY       0.0872
     44 H14        23.9690   -2.3482   24.8036 H           1 AGY       0.0139
     45 H15        24.9176   -1.8016   23.4217 H           1 AGY       0.0139
     46 H16        25.6974   -2.0973   24.9653 H           1 AGY       0.0139
     47 H17        24.1099   -5.3311   22.4874 H           1 AGY       0.0139
     48 H18        23.7756   -3.6164   22.1257 H           1 AGY       0.0139
     49 H19        22.9908   -4.3904   23.4819 H           1 AGY       0.0139
     50 H20        25.5655   -4.5247   25.9826 H           1 AGY       0.0139
     51 H21        25.4053   -5.8955   24.8734 H           1 AGY       0.0139
     52 H22        23.9897   -5.0152   25.4441 H           1 AGY       0.0139
@<TRIPOS>BOND
     1     4     1  ar
     2     1     7  ar
     3     1    10  ar
     4     2     4   1
     5    18     2  am
     6    18     3   2
     7     4    13  ar
     8     8     5   1
     9     5    18  am
    10    20     6   2
    11     7    14  ar
    12     7    15  ar
    13    20     8  am
    14    11     9   2
    15    10    16  ar
    16    11    12   2
    17    24    11   1
    18    13    17  ar
    19    17    14  ar
    20    15    19  ar
    21    16    19  ar
    22    21    20   1
    23    22    21  ar
    24    21    23  ar
    25    22    24  ar
    26    23    25  ar
    27    24    26  ar
    28    25    26  ar
    29    26    27   1
    30    27    28   1
    31    27    29   1
    32    27    30   1
    33     2    31   1
    34     5    32   1
    35     8    33   1
    36    10    34   1
    37    13    35   1
    38    14    36   1
    39    15    37   1
    40    16    38   1
    41    17    39   1
    42    19    40   1
    43    22    41   1
    44    23    42   1
    45    25    43   1
    46    28    44   1
    47    28    45   1
    48    28    46   1
    49    29    47   1
    50    29    48   1
    51    29    49   1
    52    30    50   1
    53    30    51   1
    54    30    52   1
@<TRIPOS>SUBSTRUCTURE
     1  AGY      1

