@<TRIPOS>MOLECULE
3jvs_ligand_011
    52    54
SMALL
GAST_HUCK
****
This file was generated by PARSER (from files_GN.cpp)

@<TRIPOS>ATOM
      1 C1         19.6549  -10.4081   24.4543 C.ar        1 AGY       0.0113
      2 N1         20.8485   -8.3788   25.1682 N.am        1 AGY      -0.2122
      3 O1         19.2183   -7.3231   24.0690 O.2         1 AGY      -0.3871
      4 C2         20.1796   -9.5321   25.4481 C.ar        1 AGY       0.0814
      5 N2         21.1187   -6.2957   24.2037 N.am        1 AGY      -0.1624
      6 O2         23.0498   -5.9602   22.4081 O.2         1 AGY      -0.3706
      7 C3         18.9589  -11.5866   24.8648 C.ar        1 AGY      -0.0315
      8 N3         22.3869   -6.1936   24.5065 N.am        1 AGY      -0.1773
      9 O3         29.1181   -6.4915   22.4318 O.2         1 AGY       0.1875
     10 C4         19.8260  -10.1770   23.0651 C.ar        1 AGY      -0.0551
     11 N4         27.9399   -7.0012   22.6324 N.2         1 AGY       0.3329
     12 O4         27.6088   -7.7424   21.7397 O.2         1 AGY       0.1875
     13 C5         20.0575   -9.8655   26.8120 C.ar        1 AGY      -0.0435
     14 C6         18.8123  -11.8736   26.2404 C.ar        1 AGY      -0.0747
     15 C7         18.4325  -12.4713   23.8968 C.ar        1 AGY      -0.0608
     16 C8         19.3019  -11.0673   22.1114 C.ar        1 AGY      -0.0647
     17 C9         19.3663  -11.0206   27.2075 C.ar        1 AGY      -0.0816
     18 C10        20.3627   -7.3349   24.5064 C.2         1 AGY       0.3134
     19 C11        18.6019  -12.2106   22.5265 C.ar        1 AGY      -0.0656
     20 C12        23.3350   -5.9869   23.6013 C.2         1 AGY       0.2462
     21 C13        24.6742   -5.9354   23.9791 C.ar        1 AGY       0.0865
     22 C14        25.6895   -6.5619   23.2255 C.ar        1 AGY       0.0278
     23 C15        25.0721   -5.1969   25.1055 C.ar        1 AGY      -0.0096
     24 C16        27.0734   -6.4957   23.5694 C.ar        1 AGY       0.2244
     25 C17        26.4203   -5.1440   25.4875 C.ar        1 AGY      -0.0290
     26 C18        27.4523   -5.8582   24.8133 C.ar        1 AGY      -0.0051
     27 C19        28.8198   -5.9820   25.5207 C.3         1 AGY      -0.0402
     28 C20        29.3816   -7.4522   25.4478 C.3         1 AGY      -0.0830
     29 C21        29.8408   -4.9335   24.9632 C.3         1 AGY      -0.0830
     30 C22        28.7749   -5.7063   27.0844 C.3         1 AGY      -0.0830
     31 H1         21.7306   -8.2826   25.5585 H           1 AGY       0.2311
     32 H2         20.7491   -5.6340   23.5997 H           1 AGY       0.2168
     33 H3         22.6588   -6.3802   25.4203 H           1 AGY       0.2163
     34 H4         20.3465   -9.3654   22.7260 H           1 AGY       0.0629
     35 H5         20.4520   -9.2533   27.5307 H           1 AGY       0.0440
     36 H6         18.3134  -12.7123   26.5489 H           1 AGY       0.0439
     37 H7         17.9316  -13.3173   24.1791 H           1 AGY       0.0587
     38 H8         19.4363  -10.8862   21.1135 H           1 AGY       0.0578
     39 H9         19.2650  -11.2387   28.2016 H           1 AGY       0.0564
     40 H10        18.2245  -12.8587   21.8315 H           1 AGY       0.0611
     41 H11        25.4036   -7.0578   22.3750 H           1 AGY       0.0821
     42 H12        24.3830   -4.6819   25.6593 H           1 AGY       0.0777
     43 H13        26.6207   -4.5668   26.3017 H           1 AGY       0.0872
     44 H14        30.2748   -7.5738   26.0634 H           1 AGY       0.0139
     45 H15        29.6829   -7.7640   24.4559 H           1 AGY       0.0139
     46 H16        28.6265   -8.1587   25.8020 H           1 AGY       0.0139
     47 H17        29.5126   -3.9185   25.2056 H           1 AGY       0.0139
     48 H18        29.9653   -4.9788   23.8847 H           1 AGY       0.0139
     49 H19        30.8252   -5.0876   25.4130 H           1 AGY       0.0139
     50 H20        27.9942   -6.3081   27.5612 H           1 AGY       0.0139
     51 H21        28.5843   -4.6556   27.3245 H           1 AGY       0.0139
     52 H22        29.7269   -5.9509   27.5731 H           1 AGY       0.0139
@<TRIPOS>BOND
     1     4     1  ar
     2     1     7  ar
     3     1    10  ar
     4     2     4   1
     5    18     2  am
     6    18     3   2
     7     4    13  ar
     8     8     5   1
     9     5    18  am
    10    20     6   2
    11     7    14  ar
    12     7    15  ar
    13    20     8  am
    14    11     9   2
    15    10    16  ar
    16    11    12   2
    17    24    11   1
    18    13    17  ar
    19    17    14  ar
    20    15    19  ar
    21    16    19  ar
    22    21    20   1
    23    22    21  ar
    24    21    23  ar
    25    22    24  ar
    26    23    25  ar
    27    24    26  ar
    28    25    26  ar
    29    26    27   1
    30    27    28   1
    31    27    29   1
    32    27    30   1
    33     2    31   1
    34     5    32   1
    35     8    33   1
    36    10    34   1
    37    13    35   1
    38    14    36   1
    39    15    37   1
    40    16    38   1
    41    17    39   1
    42    19    40   1
    43    22    41   1
    44    23    42   1
    45    25    43   1
    46    28    44   1
    47    28    45   1
    48    28    46   1
    49    29    47   1
    50    29    48   1
    51    29    49   1
    52    30    50   1
    53    30    51   1
    54    30    52   1
@<TRIPOS>SUBSTRUCTURE
     1  AGY      1

