@<TRIPOS>MOLECULE
3jvs_ligand_001
    52    54
SMALL
GAST_HUCK
****
This file was generated by PARSER (from files_GN.cpp)

@<TRIPOS>ATOM
      1 C1         27.5832   -3.1827   22.4181 C.ar        1 AGY       0.0113
      2 N1         28.9539   -3.7133   20.4477 N.am        1 AGY      -0.2122
      3 O1         28.1912   -5.7929   20.5381 O.2         1 AGY      -0.3871
      4 C2         28.8361   -3.4138   21.7728 C.ar        1 AGY       0.0814
      5 N2         28.7286   -5.0689   18.5671 N.am        1 AGY      -0.1624
      6 O2         31.2708   -4.1860   18.2367 O.2         1 AGY      -0.3706
      7 C3         27.5684   -2.8832   23.8174 C.ar        1 AGY      -0.0315
      8 N3         29.1487   -4.2495   17.6290 N.am        1 AGY      -0.1773
      9 O3         29.0639   -1.0051   12.5646 O.2         1 AGY       0.1875
     10 C4         26.3418   -3.2148   21.7247 C.ar        1 AGY      -0.0551
     11 N4         29.4952   -2.1543   12.9991 N.2         1 AGY       0.3329
     12 O4         28.7565   -3.0688   12.7262 O.2         1 AGY       0.1875
     13 C5         30.0328   -3.2974   22.5091 C.ar        1 AGY      -0.0435
     14 C6         28.7855   -2.7938   24.5288 C.ar        1 AGY      -0.0747
     15 C7         26.3430   -2.6658   24.4818 C.ar        1 AGY      -0.0608
     16 C8         25.1295   -2.9812   22.3980 C.ar        1 AGY      -0.0647
     17 C9         30.0111   -2.9952   23.8768 C.ar        1 AGY      -0.0816
     18 C10        28.6168   -4.8598   19.8668 C.2         1 AGY       0.3134
     19 C11        25.1274   -2.7179   23.7779 C.ar        1 AGY      -0.0656
     20 C12        30.4053   -3.8156   17.4381 C.2         1 AGY       0.2462
     21 C13        30.7615   -3.0017   16.3585 C.ar        1 AGY       0.0865
     22 C14        30.1223   -3.0820   15.0966 C.ar        1 AGY       0.0278
     23 C15        31.7238   -1.9815   16.5051 C.ar        1 AGY      -0.0096
     24 C16        30.3993   -2.1873   14.0226 C.ar        1 AGY       0.2244
     25 C17        32.0774   -1.1484   15.4270 C.ar        1 AGY      -0.0290
     26 C18        31.5096   -1.2826   14.1275 C.ar        1 AGY      -0.0051
     27 C19        32.1803   -0.5463   12.9532 C.3         1 AGY      -0.0402
     28 C20        33.7524   -0.5055   13.1040 C.3         1 AGY      -0.0830
     29 C21        31.9554   -1.2303   11.5472 C.3         1 AGY      -0.0830
     30 C22        31.6808    0.9301   12.8988 C.3         1 AGY      -0.0830
     31 H1         29.4383   -3.0611   19.9086 H           1 AGY       0.2311
     32 H2         28.3585   -5.9102   18.2543 H           1 AGY       0.2168
     33 H3         28.5022   -4.0303   16.9182 H           1 AGY       0.2163
     34 H4         26.3009   -3.3988   20.7230 H           1 AGY       0.0629
     35 H5         30.9346   -3.4532   22.0504 H           1 AGY       0.0440
     36 H6         28.7922   -2.5716   25.5294 H           1 AGY       0.0439
     37 H7         26.3235   -2.4587   25.4839 H           1 AGY       0.0587
     38 H8         24.2398   -2.9993   21.8866 H           1 AGY       0.0578
     39 H9         30.8894   -2.9130   24.3986 H           1 AGY       0.0564
     40 H10        24.2456   -2.5528   24.2688 H           1 AGY       0.0611
     41 H11        29.3778   -3.7716   14.9760 H           1 AGY       0.0821
     42 H12        32.1775   -1.8193   17.4059 H           1 AGY       0.0777
     43 H13        32.7981   -0.4543   15.6177 H           1 AGY       0.0872
     44 H14        34.2403   -0.0923   12.2189 H           1 AGY       0.0139
     45 H15        34.1469   -1.5083   13.2698 H           1 AGY       0.0139
     46 H16        34.0767    0.1294   13.9280 H           1 AGY       0.0139
     47 H17        30.9691   -1.0423   11.1390 H           1 AGY       0.0139
     48 H18        32.0990   -2.3089   11.6191 H           1 AGY       0.0139
     49 H19        32.6404   -0.8532   10.7897 H           1 AGY       0.0139
     50 H20        31.9045    1.4504   13.8311 H           1 AGY       0.0139
     51 H21        30.6038    0.9812   12.7390 H           1 AGY       0.0139
     52 H22        32.1634    1.4719   12.0832 H           1 AGY       0.0139
@<TRIPOS>BOND
     1     4     1  ar
     2     1     7  ar
     3     1    10  ar
     4     2     4   1
     5    18     2  am
     6    18     3   2
     7     4    13  ar
     8     8     5   1
     9     5    18  am
    10    20     6   2
    11     7    14  ar
    12     7    15  ar
    13    20     8  am
    14    11     9   2
    15    10    16  ar
    16    11    12   2
    17    24    11   1
    18    13    17  ar
    19    17    14  ar
    20    15    19  ar
    21    16    19  ar
    22    21    20   1
    23    22    21  ar
    24    21    23  ar
    25    22    24  ar
    26    23    25  ar
    27    24    26  ar
    28    25    26  ar
    29    26    27   1
    30    27    28   1
    31    27    29   1
    32    27    30   1
    33     2    31   1
    34     5    32   1
    35     8    33   1
    36    10    34   1
    37    13    35   1
    38    14    36   1
    39    15    37   1
    40    16    38   1
    41    17    39   1
    42    19    40   1
    43    22    41   1
    44    23    42   1
    45    25    43   1
    46    28    44   1
    47    28    45   1
    48    28    46   1
    49    29    47   1
    50    29    48   1
    51    29    49   1
    52    30    50   1
    53    30    51   1
    54    30    52   1
@<TRIPOS>SUBSTRUCTURE
     1  AGY      1

