@<TRIPOS>MOLECULE
3jvs_ligand_000
    52    54
SMALL
GAST_HUCK
****
This file was generated by PARSER (from files_GN.cpp)

@<TRIPOS>ATOM
      1 C1         27.6334   -3.2070   22.1069 C.ar        1 AGY       0.0113
      2 N1         28.9122   -3.7594   20.1015 N.am        1 AGY      -0.2122
      3 O1         28.5583   -5.9564   20.2135 O.2         1 AGY      -0.3871
      4 C2         28.8543   -3.5041   21.4425 C.ar        1 AGY       0.0814
      5 N2         28.8245   -5.1395   18.2308 N.am        1 AGY      -0.1624
      6 O2         31.2363   -4.2668   17.5652 O.2         1 AGY      -0.3706
      7 C3         27.6543   -2.9117   23.5054 C.ar        1 AGY      -0.0315
      8 N3         29.0535   -4.2230   17.3157 N.am        1 AGY      -0.1773
      9 O3         33.6203   -0.2984   13.6498 O.2         1 AGY       0.1875
     10 C4         26.3878   -3.1980   21.4295 C.ar        1 AGY      -0.0551
     11 N4         33.0034   -0.5077   14.7746 N.2         1 AGY       0.3329
     12 O4         33.7344   -0.4340   15.7268 O.2         1 AGY       0.1875
     13 C5         30.0671   -3.4988   22.1664 C.ar        1 AGY      -0.0435
     14 C6         28.8795   -2.9229   24.2084 C.ar        1 AGY      -0.0747
     15 C7         26.4478   -2.6094   24.1788 C.ar        1 AGY      -0.0608
     16 C8         25.1967   -2.8965   22.1128 C.ar        1 AGY      -0.0647
     17 C9         30.0799   -3.2139   23.5411 C.ar        1 AGY      -0.0816
     18 C10        28.7682   -4.9521   19.5393 C.2         1 AGY       0.3134
     19 C11        25.2264   -2.6021   23.4857 C.ar        1 AGY      -0.0656
     20 C12        30.2707   -3.8363   16.9451 C.2         1 AGY       0.2462
     21 C13        30.4793   -2.9658   15.8672 C.ar        1 AGY       0.0865
     22 C14        31.5557   -2.0497   15.8598 C.ar        1 AGY       0.0278
     23 C15        29.6736   -3.0053   14.7152 C.ar        1 AGY      -0.0096
     24 C16        31.7905   -1.1375   14.7927 C.ar        1 AGY       0.2244
     25 C17        29.8520   -2.0711   13.6834 C.ar        1 AGY      -0.0290
     26 C18        30.8070   -1.0196   13.7509 C.ar        1 AGY      -0.0051
     27 C19        30.6232    0.1772   12.8064 C.3         1 AGY      -0.0402
     28 C20        31.2592   -0.1385   11.4171 C.3         1 AGY      -0.0830
     29 C21        29.1020    0.5206   12.5591 C.3         1 AGY      -0.0830
     30 C22        31.1999    1.5231   13.3849 C.3         1 AGY      -0.0830
     31 H1         29.0680   -2.9994   19.5180 H           1 AGY       0.2311
     32 H2         28.6525   -6.0412   17.9118 H           1 AGY       0.2168
     33 H3         28.2953   -3.9118   16.7938 H           1 AGY       0.2163
     34 H4         26.3328   -3.4159   20.4321 H           1 AGY       0.0629
     35 H5         30.9513   -3.7044   21.6966 H           1 AGY       0.0440
     36 H6         28.9092   -2.7125   25.2105 H           1 AGY       0.0439
     37 H7         26.4503   -2.3915   25.1780 H           1 AGY       0.0587
     38 H8         24.3072   -2.8906   21.6100 H           1 AGY       0.0578
     39 H9         30.9624   -3.2126   24.0561 H           1 AGY       0.0564
     40 H10        24.3590   -2.3867   23.9802 H           1 AGY       0.0611
     41 H11        32.2104   -2.0849   16.6407 H           1 AGY       0.0821
     42 H12        28.9314   -3.7038   14.6221 H           1 AGY       0.0777
     43 H13        29.2199   -2.1457   12.8894 H           1 AGY       0.0872
     44 H14        31.1037    0.6875   10.7209 H           1 AGY       0.0139
     45 H15        30.8064   -1.0352   10.9844 H           1 AGY       0.0139
     46 H16        32.3314   -0.3085   11.4962 H           1 AGY       0.0139
     47 H17        28.5756    0.6507   13.5019 H           1 AGY       0.0139
     48 H18        28.5876   -0.2558   11.9982 H           1 AGY       0.0139
     49 H19        28.9680    1.4371   11.9855 H           1 AGY       0.0139
     50 H20        32.2782    1.5622   13.3889 H           1 AGY       0.0139
     51 H21        30.8507    1.6850   14.4034 H           1 AGY       0.0139
     52 H22        30.8928    2.3856   12.7956 H           1 AGY       0.0139
@<TRIPOS>BOND
     1     4     1  ar
     2     1     7  ar
     3     1    10  ar
     4     2     4   1
     5    18     2  am
     6    18     3   2
     7     4    13  ar
     8     8     5   1
     9     5    18  am
    10    20     6   2
    11     7    14  ar
    12     7    15  ar
    13    20     8  am
    14    11     9   2
    15    10    16  ar
    16    11    12   2
    17    24    11   1
    18    13    17  ar
    19    17    14  ar
    20    15    19  ar
    21    16    19  ar
    22    21    20   1
    23    22    21  ar
    24    21    23  ar
    25    22    24  ar
    26    23    25  ar
    27    24    26  ar
    28    25    26  ar
    29    26    27   1
    30    27    28   1
    31    27    29   1
    32    27    30   1
    33     2    31   1
    34     5    32   1
    35     8    33   1
    36    10    34   1
    37    13    35   1
    38    14    36   1
    39    15    37   1
    40    16    38   1
    41    17    39   1
    42    19    40   1
    43    22    41   1
    44    23    42   1
    45    25    43   1
    46    28    44   1
    47    28    45   1
    48    28    46   1
    49    29    47   1
    50    29    48   1
    51    29    49   1
    52    30    50   1
    53    30    51   1
    54    30    52   1
@<TRIPOS>SUBSTRUCTURE
     1  AGY      1

