@<TRIPOS>MOLECULE
3k5v_ligand_010
    40    42
SMALL
GAST_HUCK
****
This file was generated by PARSER (from files_GN.cpp)

@<TRIPOS>ATOM
      1 F1         21.8699   45.7947   64.7461 F           1 STJ      -0.1403
      2 C2         21.4245   45.1199   63.6389 C.3         1 STJ       0.5443
      3 F3         22.2597   44.0395   63.4644 F           1 STJ      -0.1403
      4 F4         20.1529   44.6701   63.9042 F           1 STJ      -0.1403
      5 O5         21.4422   46.0496   62.5354 O.3         1 STJ      -0.2334
      6 C6         21.1419   45.5116   61.3118 C.ar        1 STJ       0.0890
      7 C7         19.8334   45.5906   60.7941 C.ar        1 STJ      -0.0416
      8 C9         19.5450   45.0450   59.5273 C.ar        1 STJ      -0.0462
      9 C11        20.5501   44.4400   58.7411 C.ar        1 STJ       0.0536
     10 C12        21.8600   44.3565   59.2808 C.ar        1 STJ      -0.0462
     11 C14        22.1522   44.9061   60.5422 C.ar        1 STJ      -0.0416
     12 N16        20.1587   43.9465   57.5228 N.pl3       1 STJ      -0.2596
     13 C18        20.8833   43.6392   56.4150 C.ar        1 STJ       0.1450
     14 N19        22.2252   43.8354   56.3319 N.ar        1 STJ      -0.2510
     15 C20        22.9344   43.5476   55.2189 C.ar        1 STJ       0.0700
     16 N22        22.2981   43.0445   54.1359 N.ar        1 STJ      -0.2790
     17 C23        20.9565   42.8142   54.1226 C.ar        1 STJ       0.0556
     18 C24        20.2106   43.1264   55.2812 C.ar        1 STJ       0.0164
     19 C26        20.3825   42.2825   52.9389 C.ar        1 STJ       0.0087
     20 C27        19.5687   41.1212   52.9586 C.ar        1 STJ      -0.0286
     21 C29        19.0680   40.5302   51.7661 C.ar        1 STJ       0.0537
     22 C30        19.3869   41.1663   50.5381 C.ar        1 STJ      -0.0390
     23 C32        20.1771   42.3280   50.5020 C.ar        1 STJ      -0.0524
     24 C34        20.6761   42.8758   51.6914 C.ar        1 STJ      -0.0444
     25 C36        18.3010   39.3532   51.8021 C.2         1 STJ       0.2033
     26 O37        17.9926   38.8278   52.8632 O.2         1 STJ      -0.3848
     27 N38        17.8628   38.7173   50.7339 N.am        1 STJ      -0.3000
     28 H1         19.0901   46.0360   61.3369 H           1 STJ       0.0516
     29 H2         18.5842   45.1053   59.1796 H           1 STJ       0.0512
     30 H3         22.6049   43.8792   58.7757 H           1 STJ       0.0512
     31 H4         23.1047   44.8497   60.9134 H           1 STJ       0.0516
     32 H5         19.2020   43.8400   57.4164 H           1 STJ       0.2132
     33 H6         23.9424   43.6991   55.1936 H           1 STJ       0.1079
     34 H7         19.1961   42.9978   55.2896 H           1 STJ       0.0681
     35 H8         19.3784   40.6789   53.8631 H           1 STJ       0.0707
     36 H9         19.0525   40.7950   49.6477 H           1 STJ       0.0693
     37 H10        20.3990   42.7687   49.6062 H           1 STJ       0.0637
     38 H11        21.2581   43.7169   51.6398 H           1 STJ       0.0687
     39 H12        17.3390   37.9060   50.8369 H           1 STJ       0.1808
     40 H13        18.0585   39.0403   49.8411 H           1 STJ       0.1808
@<TRIPOS>BOND
     1     1     2   1
     2     2     3   1
     3     2     4   1
     4     2     5   1
     5     5     6   1
     6     6     7  ar
     7     6    11  ar
     8     7     8  ar
     9     8     9  ar
    10     9    10  ar
    11     9    12   1
    12    10    11  ar
    13    12    13   1
    14    13    14  ar
    15    13    18  ar
    16    14    15  ar
    17    15    16  ar
    18    16    17  ar
    19    17    18  ar
    20    17    19   1
    21    19    20  ar
    22    19    24  ar
    23    20    21  ar
    24    21    22  ar
    25    21    25   1
    26    22    23  ar
    27    23    24  ar
    28    25    26   2
    29    25    27  am
    30     7    28   1
    31     8    29   1
    32    10    30   1
    33    11    31   1
    34    12    32   1
    35    15    33   1
    36    18    34   1
    37    20    35   1
    38    22    36   1
    39    23    37   1
    40    24    38   1
    41    27    39   1
    42    27    40   1
@<TRIPOS>SUBSTRUCTURE
     1  STJ      2

