@<TRIPOS>MOLECULE
3k5v_ligand_012
    40    42
SMALL
GAST_HUCK
****
This file was generated by PARSER (from files_GN.cpp)

@<TRIPOS>ATOM
      1 F1         15.5150   45.3644   64.5358 F           1 STJ      -0.1403
      2 C2         16.6827   45.2978   63.8199 C.3         1 STJ       0.5443
      3 F3         17.1780   46.5768   63.7222 F           1 STJ      -0.1403
      4 F4         17.5540   44.5025   64.5253 F           1 STJ      -0.1403
      5 O5         16.3642   44.7485   62.5270 O.3         1 STJ      -0.2334
      6 C6         17.3110   44.4741   61.5635 C.ar        1 STJ       0.0890
      7 C7         16.8230   43.8580   60.3916 C.ar        1 STJ      -0.0416
      8 C9         17.6842   43.5418   59.3247 C.ar        1 STJ      -0.0462
      9 C11        19.0572   43.8579   59.3937 C.ar        1 STJ       0.0536
     10 C12        19.5619   44.4273   60.5865 C.ar        1 STJ      -0.0462
     11 C14        18.6987   44.7468   61.6495 C.ar        1 STJ      -0.0416
     12 N16        19.8474   43.5133   58.3348 N.pl3       1 STJ      -0.2596
     13 C18        20.9328   44.1548   57.8334 C.ar        1 STJ       0.1450
     14 N19        21.6483   43.4650   56.9075 N.ar        1 STJ      -0.2510
     15 C20        22.7760   43.9612   56.3456 C.ar        1 STJ       0.0700
     16 N22        23.2167   45.1873   56.7156 N.ar        1 STJ      -0.2790
     17 C23        22.5550   45.9668   57.6154 C.ar        1 STJ       0.0556
     18 C24        21.3623   45.4578   58.1821 C.ar        1 STJ       0.0164
     19 C26        23.0998   47.2395   57.9551 C.ar        1 STJ       0.0087
     20 C27        24.5029   47.4522   57.9262 C.ar        1 STJ      -0.0286
     21 C29        25.0912   48.7046   58.2432 C.ar        1 STJ       0.0537
     22 C30        24.2130   49.7657   58.5843 C.ar        1 STJ      -0.0390
     23 C32        22.8203   49.5790   58.6188 C.ar        1 STJ      -0.0524
     24 C34        22.2696   48.3255   58.3192 C.ar        1 STJ      -0.0444
     25 C36        26.4858   48.8746   58.2259 C.2         1 STJ       0.2033
     26 O37        27.2352   47.9709   57.8795 O.2         1 STJ      -0.3848
     27 N38        27.1011   49.9829   58.5808 N.am        1 STJ      -0.3000
     28 H1         15.8274   43.6342   60.3088 H           1 STJ       0.0516
     29 H2         17.3001   43.0931   58.4881 H           1 STJ       0.0512
     30 H3         20.5663   44.6087   60.6897 H           1 STJ       0.0512
     31 H4         19.0976   45.1790   62.4851 H           1 STJ       0.0516
     32 H5         19.5854   42.7036   57.8662 H           1 STJ       0.2132
     33 H6         23.2960   43.4108   55.6619 H           1 STJ       0.1079
     34 H7         20.8191   46.0202   58.8416 H           1 STJ       0.0681
     35 H8         25.1109   46.6634   57.6837 H           1 STJ       0.0707
     36 H9         24.5712   50.6946   58.8114 H           1 STJ       0.0693
     37 H10        22.2066   50.3610   58.8608 H           1 STJ       0.0637
     38 H11        21.2504   48.2248   58.3348 H           1 STJ       0.0687
     39 H12        28.0710   50.0239   58.5529 H           1 STJ       0.1808
     40 H13        26.6028   50.7587   58.8795 H           1 STJ       0.1808
@<TRIPOS>BOND
     1     1     2   1
     2     2     3   1
     3     2     4   1
     4     2     5   1
     5     5     6   1
     6     6     7  ar
     7     6    11  ar
     8     7     8  ar
     9     8     9  ar
    10     9    10  ar
    11     9    12   1
    12    10    11  ar
    13    12    13   1
    14    13    14  ar
    15    13    18  ar
    16    14    15  ar
    17    15    16  ar
    18    16    17  ar
    19    17    18  ar
    20    17    19   1
    21    19    20  ar
    22    19    24  ar
    23    20    21  ar
    24    21    22  ar
    25    21    25   1
    26    22    23  ar
    27    23    24  ar
    28    25    26   2
    29    25    27  am
    30     7    28   1
    31     8    29   1
    32    10    30   1
    33    11    31   1
    34    12    32   1
    35    15    33   1
    36    18    34   1
    37    20    35   1
    38    22    36   1
    39    23    37   1
    40    24    38   1
    41    27    39   1
    42    27    40   1
@<TRIPOS>SUBSTRUCTURE
     1  STJ      2

