@<TRIPOS>MOLECULE
3k5v_ligand_013
    40    42
SMALL
GAST_HUCK
****
This file was generated by PARSER (from files_GN.cpp)

@<TRIPOS>ATOM
      1 F1         15.4430   38.7706   49.9328 F           1 STJ      -0.1403
      2 C2         16.6596   39.3996   49.9716 C.3         1 STJ       0.5443
      3 F3         17.6018   38.4437   50.2785 F           1 STJ      -0.1403
      4 F4         16.9005   39.8966   48.7122 F           1 STJ      -0.1403
      5 O5         16.5727   40.4419   50.9605 O.3         1 STJ      -0.2334
      6 C6         17.7338   41.1304   51.2060 C.ar        1 STJ       0.0890
      7 C7         18.5333   40.7849   52.3127 C.ar        1 STJ      -0.0416
      8 C9         19.6632   41.5586   52.6415 C.ar        1 STJ      -0.0462
      9 C11        19.9964   42.7120   51.8884 C.ar        1 STJ       0.0536
     10 C12        19.2218   43.0143   50.7475 C.ar        1 STJ      -0.0462
     11 C14        18.0877   42.2481   50.4241 C.ar        1 STJ      -0.0416
     12 N16        21.0656   43.5216   52.1579 N.pl3       1 STJ      -0.2596
     13 C18        21.5716   43.9232   53.3553 C.ar        1 STJ       0.1450
     14 N19        22.7269   44.6340   53.2960 N.ar        1 STJ      -0.2510
     15 C20        23.3590   45.0819   54.4091 C.ar        1 STJ       0.0700
     16 N22        22.8276   44.8123   55.6280 N.ar        1 STJ      -0.2790
     17 C23        21.6622   44.1321   55.7873 C.ar        1 STJ       0.0556
     18 C24        20.9938   43.6859   54.6211 C.ar        1 STJ       0.0164
     19 C26        21.1758   43.8675   57.1037 C.ar        1 STJ       0.0087
     20 C27        19.7855   43.8090   57.3922 C.ar        1 STJ      -0.0286
     21 C29        19.2850   43.5229   58.6887 C.ar        1 STJ       0.0537
     22 C30        20.2277   43.2933   59.7197 C.ar        1 STJ      -0.0390
     23 C32        21.6068   43.3519   59.4633 C.ar        1 STJ      -0.0524
     24 C34        22.0741   43.6399   58.1683 C.ar        1 STJ      -0.0444
     25 C36        17.9009   43.4624   58.9245 C.2         1 STJ       0.2033
     26 O37        17.1019   43.4734   57.9999 O.2         1 STJ      -0.3848
     27 N38        17.3604   43.3946   60.1205 N.am        1 STJ      -0.3000
     28 H1         18.2909   39.9699   52.8882 H           1 STJ       0.0516
     29 H2         20.2371   41.2739   53.4386 H           1 STJ       0.0512
     30 H3         19.4606   43.8190   50.1636 H           1 STJ       0.0512
     31 H4         17.5127   42.5095   49.6208 H           1 STJ       0.0516
     32 H5         21.4984   43.9060   51.3819 H           1 STJ       0.2132
     33 H6         24.2324   45.6030   54.3373 H           1 STJ       0.1079
     34 H7         20.1062   43.1921   54.6910 H           1 STJ       0.0681
     35 H8         19.1209   44.0050   56.6385 H           1 STJ       0.0707
     36 H9         19.9326   43.0677   60.6693 H           1 STJ       0.0693
     37 H10        22.2748   43.1764   60.2159 H           1 STJ       0.0637
     38 H11        23.0870   43.6584   58.0121 H           1 STJ       0.0687
     39 H12        16.3939   43.3611   60.2066 H           1 STJ       0.1808
     40 H13        17.9080   43.3976   60.9201 H           1 STJ       0.1808
@<TRIPOS>BOND
     1     1     2   1
     2     2     3   1
     3     2     4   1
     4     2     5   1
     5     5     6   1
     6     6     7  ar
     7     6    11  ar
     8     7     8  ar
     9     8     9  ar
    10     9    10  ar
    11     9    12   1
    12    10    11  ar
    13    12    13   1
    14    13    14  ar
    15    13    18  ar
    16    14    15  ar
    17    15    16  ar
    18    16    17  ar
    19    17    18  ar
    20    17    19   1
    21    19    20  ar
    22    19    24  ar
    23    20    21  ar
    24    21    22  ar
    25    21    25   1
    26    22    23  ar
    27    23    24  ar
    28    25    26   2
    29    25    27  am
    30     7    28   1
    31     8    29   1
    32    10    30   1
    33    11    31   1
    34    12    32   1
    35    15    33   1
    36    18    34   1
    37    20    35   1
    38    22    36   1
    39    23    37   1
    40    24    38   1
    41    27    39   1
    42    27    40   1
@<TRIPOS>SUBSTRUCTURE
     1  STJ      2

