@<TRIPOS>MOLECULE
3k5v_ligand_000
    40    42
SMALL
GAST_HUCK
****
This file was generated by PARSER (from files_GN.cpp)

@<TRIPOS>ATOM
      1 F1         16.2541   38.3118   47.6064 F           1 STJ      -0.1403
      2 C2         17.1824   38.6731   48.5460 C.3         1 STJ       0.5443
      3 F3         17.9105   37.5472   48.8490 F           1 STJ      -0.1403
      4 F4         18.0059   39.6115   47.9676 F           1 STJ      -0.1403
      5 O5         16.4582   39.1788   49.6850 O.3         1 STJ      -0.2334
      6 C6         17.2185   39.7290   50.6829 C.ar        1 STJ       0.0890
      7 C7         17.2376   41.1279   50.8403 C.ar        1 STJ      -0.0416
      8 C9         17.9606   41.7169   51.8951 C.ar        1 STJ      -0.0462
      9 C11        18.6891   40.9173   52.8110 C.ar        1 STJ       0.0536
     10 C12        18.6380   39.5134   52.6580 C.ar        1 STJ      -0.0462
     11 C14        17.9048   38.9236   51.6134 C.ar        1 STJ      -0.0416
     12 N16        19.4213   41.3655   53.8754 N.pl3       1 STJ      -0.2596
     13 C18        19.8654   42.6005   54.2119 C.ar        1 STJ       0.1450
     14 N19        19.6554   43.7212   53.4697 N.ar        1 STJ      -0.2510
     15 C20        20.1171   44.9396   53.8458 C.ar        1 STJ       0.0700
     16 N22        20.8143   45.0649   55.0008 N.ar        1 STJ      -0.2790
     17 C23        21.0714   43.9913   55.7899 C.ar        1 STJ       0.0556
     18 C24        20.6096   42.7165   55.4043 C.ar        1 STJ       0.0164
     19 C26        21.8057   44.1783   56.9722 C.ar        1 STJ       0.0087
     20 C27        23.2085   44.0125   56.9730 C.ar        1 STJ      -0.0286
     21 C29        23.9751   44.1961   58.1529 C.ar        1 STJ       0.0537
     22 C30        23.2779   44.5710   59.3332 C.ar        1 STJ      -0.0390
     23 C32        21.8816   44.7336   59.3405 C.ar        1 STJ      -0.0524
     24 C34        21.1442   44.5356   58.1635 C.ar        1 STJ      -0.0444
     25 C36        25.3648   44.0097   58.1676 C.2         1 STJ       0.2033
     26 O37        25.9919   44.0150   59.2170 O.2         1 STJ      -0.3848
     27 N38        26.1099   43.8391   57.0947 N.am        1 STJ      -0.3000
     28 H1         16.7115   41.7204   50.1929 H           1 STJ       0.0516
     29 H2         17.9194   42.7300   51.9926 H           1 STJ       0.0512
     30 H3         19.1340   38.9031   53.3148 H           1 STJ       0.0512
     31 H4         17.8685   37.9057   51.5358 H           1 STJ       0.0516
     32 H5         19.6962   40.6664   54.4902 H           1 STJ       0.2132
     33 H6         19.9475   45.7560   53.2618 H           1 STJ       0.1079
     34 H7         20.8062   41.8936   55.9820 H           1 STJ       0.0681
     35 H8         23.6655   43.7371   56.0995 H           1 STJ       0.0707
     36 H9         23.7797   44.7334   60.2101 H           1 STJ       0.0693
     37 H10        21.4016   44.9967   60.2044 H           1 STJ       0.0637
     38 H11        20.1271   44.6547   58.1829 H           1 STJ       0.0687
     39 H12        27.0689   43.7227   57.1923 H           1 STJ       0.1808
     40 H13        25.7176   43.8146   56.2092 H           1 STJ       0.1808
@<TRIPOS>BOND
     1     1     2   1
     2     2     3   1
     3     2     4   1
     4     2     5   1
     5     5     6   1
     6     6     7  ar
     7     6    11  ar
     8     7     8  ar
     9     8     9  ar
    10     9    10  ar
    11     9    12   1
    12    10    11  ar
    13    12    13   1
    14    13    14  ar
    15    13    18  ar
    16    14    15  ar
    17    15    16  ar
    18    16    17  ar
    19    17    18  ar
    20    17    19   1
    21    19    20  ar
    22    19    24  ar
    23    20    21  ar
    24    21    22  ar
    25    21    25   1
    26    22    23  ar
    27    23    24  ar
    28    25    26   2
    29    25    27  am
    30     7    28   1
    31     8    29   1
    32    10    30   1
    33    11    31   1
    34    12    32   1
    35    15    33   1
    36    18    34   1
    37    20    35   1
    38    22    36   1
    39    23    37   1
    40    24    38   1
    41    27    39   1
    42    27    40   1
@<TRIPOS>SUBSTRUCTURE
     1  STJ      2

