@<TRIPOS>MOLECULE
3k5v_ligand_005
    40    42
SMALL
GAST_HUCK
****
This file was generated by PARSER (from files_GN.cpp)

@<TRIPOS>ATOM
      1 F1         29.2222   45.9878   42.9045 F           1 STJ      -0.1403
      2 C2         28.3856   46.3619   43.9254 C.3         1 STJ       0.5443
      3 F3         27.1089   46.4196   43.4099 F           1 STJ      -0.1403
      4 F4         28.4420   45.3769   44.8905 F           1 STJ      -0.1403
      5 O5         28.8466   47.6424   44.4074 O.3         1 STJ      -0.2334
      6 C6         28.1436   48.1425   45.4721 C.ar        1 STJ       0.0890
      7 C7         28.6298   47.9619   46.7815 C.ar        1 STJ      -0.0416
      8 C9         27.9167   48.4762   47.8792 C.ar        1 STJ      -0.0462
      9 C11        26.6905   49.1567   47.6870 C.ar        1 STJ       0.0536
     10 C12        26.2491   49.3993   46.3690 C.ar        1 STJ      -0.0462
     11 C14        26.9691   48.8953   45.2700 C.ar        1 STJ      -0.0416
     12 N16        25.9315   49.6526   48.7061 N.pl3       1 STJ      -0.2596
     13 C18        25.6011   49.0710   49.8860 C.ar        1 STJ       0.1450
     14 N19        24.8584   49.8232   50.7350 N.ar        1 STJ      -0.2510
     15 C20        24.4518   49.3745   51.9473 C.ar        1 STJ       0.0700
     16 N22        24.8248   48.1373   52.3554 N.ar        1 STJ      -0.2790
     17 C23        25.5664   47.3057   51.5711 C.ar        1 STJ       0.0556
     18 C24        25.9283   47.7558   50.2799 C.ar        1 STJ       0.0164
     19 C26        25.9916   46.0460   52.0798 C.ar        1 STJ       0.0087
     20 C27        27.2744   45.5346   51.7615 C.ar        1 STJ      -0.0286
     21 C29        27.7507   44.2967   52.2633 C.ar        1 STJ       0.0537
     22 C30        26.8903   43.5734   53.1293 C.ar        1 STJ      -0.0390
     23 C32        25.6193   44.0670   53.4704 C.ar        1 STJ      -0.0524
     24 C34        25.1744   45.2954   52.9541 C.ar        1 STJ      -0.0444
     25 C36        29.0222   43.8278   51.9006 C.2         1 STJ       0.2033
     26 O37        29.6978   44.3854   51.0456 O.2         1 STJ      -0.3848
     27 N38        29.5890   42.7666   52.4281 N.am        1 STJ      -0.3000
     28 H1         29.5056   47.4555   46.9352 H           1 STJ       0.0516
     29 H2         28.3028   48.3548   48.8190 H           1 STJ       0.0512
     30 H3         25.3837   49.9192   46.2034 H           1 STJ       0.0512
     31 H4         26.6299   49.0636   44.3208 H           1 STJ       0.0516
     32 H5         25.5128   50.5093   48.5301 H           1 STJ       0.2132
     33 H6         23.8914   49.9719   52.5557 H           1 STJ       0.1079
     34 H7         26.4082   47.1278   49.6356 H           1 STJ       0.0681
     35 H8         27.8888   46.0964   51.1669 H           1 STJ       0.0707
     36 H9         27.1710   42.6717   53.5223 H           1 STJ       0.0693
     37 H10        25.0162   43.5283   54.0968 H           1 STJ       0.0637
     38 H11        24.2427   45.6293   53.2172 H           1 STJ       0.0687
     39 H12        30.4645   42.4893   52.1234 H           1 STJ       0.1808
     40 H13        29.1525   42.2598   53.1283 H           1 STJ       0.1808
@<TRIPOS>BOND
     1     1     2   1
     2     2     3   1
     3     2     4   1
     4     2     5   1
     5     5     6   1
     6     6     7  ar
     7     6    11  ar
     8     7     8  ar
     9     8     9  ar
    10     9    10  ar
    11     9    12   1
    12    10    11  ar
    13    12    13   1
    14    13    14  ar
    15    13    18  ar
    16    14    15  ar
    17    15    16  ar
    18    16    17  ar
    19    17    18  ar
    20    17    19   1
    21    19    20  ar
    22    19    24  ar
    23    20    21  ar
    24    21    22  ar
    25    21    25   1
    26    22    23  ar
    27    23    24  ar
    28    25    26   2
    29    25    27  am
    30     7    28   1
    31     8    29   1
    32    10    30   1
    33    11    31   1
    34    12    32   1
    35    15    33   1
    36    18    34   1
    37    20    35   1
    38    22    36   1
    39    23    37   1
    40    24    38   1
    41    27    39   1
    42    27    40   1
@<TRIPOS>SUBSTRUCTURE
     1  STJ      2

