@<TRIPOS>MOLECULE
3k5v_ligand_008
    40    42
SMALL
GAST_HUCK
****
This file was generated by PARSER (from files_GN.cpp)

@<TRIPOS>ATOM
      1 F1         27.1415   46.1973   53.5891 F           1 STJ      -0.1403
      2 C2         25.7913   45.9495   53.6139 C.3         1 STJ       0.5443
      3 F3         25.1517   47.1022   53.2065 F           1 STJ      -0.1403
      4 F4         25.5250   44.9270   52.7350 F           1 STJ      -0.1403
      5 O5         25.4613   45.5888   54.9778 O.3         1 STJ      -0.2334
      6 C6         24.1330   45.3290   55.2170 C.ar        1 STJ       0.0890
      7 C7         23.3304   46.3235   55.8060 C.ar        1 STJ      -0.0416
      8 C9         21.9632   46.0761   56.0502 C.ar        1 STJ      -0.0462
      9 C11        21.3736   44.8430   55.6873 C.ar        1 STJ       0.0536
     10 C12        22.2073   43.8280   55.1597 C.ar        1 STJ      -0.0462
     11 C14        23.5722   44.0673   54.9277 C.ar        1 STJ      -0.0416
     12 N16        20.0295   44.6901   55.8967 N.pl3       1 STJ      -0.2596
     13 C18        19.1147   44.0462   55.1270 C.ar        1 STJ       0.1450
     14 N19        17.8496   43.9020   55.6124 N.ar        1 STJ      -0.2510
     15 C20        16.8833   43.2269   54.9464 C.ar        1 STJ       0.0700
     16 N22        17.1925   42.6094   53.7771 N.ar        1 STJ      -0.2790
     17 C23        18.4234   42.7100   53.1977 C.ar        1 STJ       0.0556
     18 C24        19.3972   43.4900   53.8600 C.ar        1 STJ       0.0164
     19 C26        18.7434   41.9221   52.0420 C.ar        1 STJ       0.0087
     20 C27        18.1761   40.6355   51.8772 C.ar        1 STJ      -0.0286
     21 C29        18.5466   39.7587   50.8224 C.ar        1 STJ       0.0537
     22 C30        19.5264   40.2302   49.9093 C.ar        1 STJ      -0.0390
     23 C32        20.0925   41.5089   50.0355 C.ar        1 STJ      -0.0524
     24 C34        19.6967   42.3469   51.0888 C.ar        1 STJ      -0.0444
     25 C36        17.9979   38.4740   50.7042 C.2         1 STJ       0.2033
     26 O37        18.2756   37.7524   49.7566 O.2         1 STJ      -0.3848
     27 N38        17.2130   37.9126   51.5996 N.am        1 STJ      -0.3000
     28 H1         23.7297   47.2315   56.0423 H           1 STJ       0.0516
     29 H2         21.3940   46.8236   56.4527 H           1 STJ       0.0512
     30 H3         21.8304   42.9141   54.9125 H           1 STJ       0.0512
     31 H4         24.1593   43.3357   54.5180 H           1 STJ       0.0516
     32 H5         19.6564   45.1560   56.6578 H           1 STJ       0.2132
     33 H6         15.9425   43.1403   55.3476 H           1 STJ       0.1079
     34 H7         20.3252   43.6101   53.4501 H           1 STJ       0.0681
     35 H8         17.4976   40.3193   52.5732 H           1 STJ       0.0707
     36 H9         19.8395   39.6474   49.1311 H           1 STJ       0.0693
     37 H10        20.7928   41.8216   49.3672 H           1 STJ       0.0637
     38 H11        20.1053   43.2824   51.1495 H           1 STJ       0.0687
     39 H12        16.8915   37.0063   51.4596 H           1 STJ       0.1808
     40 H13        16.9460   38.3822   52.4009 H           1 STJ       0.1808
@<TRIPOS>BOND
     1     1     2   1
     2     2     3   1
     3     2     4   1
     4     2     5   1
     5     5     6   1
     6     6     7  ar
     7     6    11  ar
     8     7     8  ar
     9     8     9  ar
    10     9    10  ar
    11     9    12   1
    12    10    11  ar
    13    12    13   1
    14    13    14  ar
    15    13    18  ar
    16    14    15  ar
    17    15    16  ar
    18    16    17  ar
    19    17    18  ar
    20    17    19   1
    21    19    20  ar
    22    19    24  ar
    23    20    21  ar
    24    21    22  ar
    25    21    25   1
    26    22    23  ar
    27    23    24  ar
    28    25    26   2
    29    25    27  am
    30     7    28   1
    31     8    29   1
    32    10    30   1
    33    11    31   1
    34    12    32   1
    35    15    33   1
    36    18    34   1
    37    20    35   1
    38    22    36   1
    39    23    37   1
    40    24    38   1
    41    27    39   1
    42    27    40   1
@<TRIPOS>SUBSTRUCTURE
     1  STJ      2

