@<TRIPOS>MOLECULE
3k5v_ligand_011
    40    42
SMALL
GAST_HUCK
****
This file was generated by PARSER (from files_GN.cpp)

@<TRIPOS>ATOM
      1 F1         26.4829   53.9895   60.7507 F           1 STJ      -0.1403
      2 C2         25.8689   53.5201   59.6200 C.3         1 STJ       0.5443
      3 F3         25.0827   52.4548   59.9958 F           1 STJ      -0.1403
      4 F4         25.0692   54.5272   59.1330 F           1 STJ      -0.1403
      5 O5         26.9056   53.1393   58.6907 O.3         1 STJ      -0.2334
      6 C6         26.4649   52.6077   57.5043 C.ar        1 STJ       0.0890
      7 C7         26.1947   51.2297   57.3867 C.ar        1 STJ      -0.0416
      8 C9         25.7593   50.6854   56.1619 C.ar        1 STJ      -0.0462
      9 C11        25.6543   51.4974   55.0044 C.ar        1 STJ       0.0536
     10 C12        25.9250   52.8792   55.1387 C.ar        1 STJ      -0.0462
     11 C14        26.3250   53.4293   56.3690 C.ar        1 STJ      -0.0416
     12 N16        25.2802   51.1175   53.7443 N.pl3       1 STJ      -0.2596
     13 C18        25.2734   49.9480   53.0577 C.ar        1 STJ       0.1450
     14 N19        24.8888   50.1003   51.7662 N.ar        1 STJ      -0.2510
     15 C20        24.8598   49.0813   50.8719 C.ar        1 STJ       0.0700
     16 N22        25.2275   47.8423   51.2685 N.ar        1 STJ      -0.2790
     17 C23        25.6138   47.5927   52.5453 C.ar        1 STJ       0.0556
     18 C24        25.6631   48.6522   53.4805 C.ar        1 STJ       0.0164
     19 C26        26.0516   46.2909   52.8696 C.ar        1 STJ       0.0087
     20 C27        27.2589   45.8086   52.3219 C.ar        1 STJ      -0.0286
     21 C29        27.7662   44.5198   52.6355 C.ar        1 STJ       0.0537
     22 C30        26.9796   43.7054   53.4960 C.ar        1 STJ      -0.0390
     23 C32        25.7698   44.1741   54.0403 C.ar        1 STJ      -0.0524
     24 C34        25.3110   45.4683   53.7418 C.ar        1 STJ      -0.0444
     25 C36        28.9963   44.0890   52.1133 C.2         1 STJ       0.2033
     26 O37        29.6476   44.7798   51.3406 O.2         1 STJ      -0.3848
     27 N38        29.5599   42.9390   52.4164 N.am        1 STJ      -0.3000
     28 H1         26.2964   50.6170   58.2008 H           1 STJ       0.0516
     29 H2         25.4919   49.7016   56.1508 H           1 STJ       0.0512
     30 H3         25.8393   53.5011   54.3302 H           1 STJ       0.0512
     31 H4         26.5203   54.4291   56.4351 H           1 STJ       0.0516
     32 H5         25.0326   51.8708   53.1856 H           1 STJ       0.2132
     33 H6         24.5870   49.2519   49.9071 H           1 STJ       0.1079
     34 H7         26.0273   48.4791   54.4132 H           1 STJ       0.0681
     35 H8         27.7849   46.4256   51.6924 H           1 STJ       0.0707
     36 H9         27.2782   42.7628   53.7510 H           1 STJ       0.0693
     37 H10        25.2243   43.5758   54.6673 H           1 STJ       0.0637
     38 H11        24.4289   45.7963   54.1470 H           1 STJ       0.0687
     39 H12        30.4066   42.6829   52.0160 H           1 STJ       0.1808
     40 H13        29.1453   42.3334   53.0481 H           1 STJ       0.1808
@<TRIPOS>BOND
     1     1     2   1
     2     2     3   1
     3     2     4   1
     4     2     5   1
     5     5     6   1
     6     6     7  ar
     7     6    11  ar
     8     7     8  ar
     9     8     9  ar
    10     9    10  ar
    11     9    12   1
    12    10    11  ar
    13    12    13   1
    14    13    14  ar
    15    13    18  ar
    16    14    15  ar
    17    15    16  ar
    18    16    17  ar
    19    17    18  ar
    20    17    19   1
    21    19    20  ar
    22    19    24  ar
    23    20    21  ar
    24    21    22  ar
    25    21    25   1
    26    22    23  ar
    27    23    24  ar
    28    25    26   2
    29    25    27  am
    30     7    28   1
    31     8    29   1
    32    10    30   1
    33    11    31   1
    34    12    32   1
    35    15    33   1
    36    18    34   1
    37    20    35   1
    38    22    36   1
    39    23    37   1
    40    24    38   1
    41    27    39   1
    42    27    40   1
@<TRIPOS>SUBSTRUCTURE
     1  STJ      2

