@<TRIPOS>MOLECULE
3kgp_ligand_015
    20    20
SMALL
GAST_HUCK
****
This file was generated by PARSER (from files_GN.cpp)

@<TRIPOS>ATOM
      1 C         -34.3070   78.3932  -19.5567 C.2         1 MOL       0.0584
      2 O         -33.4361   78.2902  -20.5879 O.co2       1 MOL      -0.5625
      3 C1        -34.3771   79.5597  -18.7498 C.ar        1 MOL       0.0032
      4 N1        -35.9227   83.7844  -16.4288 N.4         1 MOL       0.2312
      5 C2        -35.1554   79.5824  -17.5663 C.ar        1 MOL      -0.0541
      6 C3        -35.2267   80.7396  -16.7678 C.ar        1 MOL      -0.0515
      7 C4        -34.5300   81.9133  -17.1318 C.ar        1 MOL       0.0041
      8 C5        -33.7475   81.8939  -18.3082 C.ar        1 MOL      -0.0515
      9 C6        -33.6714   80.7346  -19.1036 C.ar        1 MOL      -0.0541
     10 C7        -34.6181   83.1272  -16.2812 C.3         1 MOL      -0.0004
     11 OXT       -35.1331   77.3367  -19.3603 O.co2       1 MOL      -0.5625
     12 H1        -35.9541   84.6084  -15.8245 H           1 MOL       0.2008
     13 H2        -36.6732   83.1400  -16.1633 H           1 MOL       0.2008
     14 H3        -36.0527   84.0752  -17.4006 H           1 MOL       0.2008
     15 H4        -35.6780   78.7547  -17.2676 H           1 MOL       0.0634
     16 H5        -35.7912   80.7190  -15.9138 H           1 MOL       0.0566
     17 H6        -33.2275   82.7262  -18.5976 H           1 MOL       0.0566
     18 H7        -33.0958   80.7635  -19.9499 H           1 MOL       0.0634
     19 H8        -34.4769   82.8477  -15.2356 H           1 MOL       0.0985
     20 H9        -33.8474   83.8587  -16.5366 H           1 MOL       0.0985
@<TRIPOS>BOND
     1     1     2  ar
     2     3     1   1
     3     1    11  ar
     4     5     3  ar
     5     3     9  ar
     6    10     4   1
     7     6     5  ar
     8     7     6  ar
     9     7     8  ar
    10     7    10   1
    11     8     9  ar
    12     4    12   1
    13     4    13   1
    14     4    14   1
    15     5    15   1
    16     6    16   1
    17     8    17   1
    18     9    18   1
    19    10    19   1
    20    10    20   1
@<TRIPOS>SUBSTRUCTURE
     1  MOL      1

