@<TRIPOS>MOLECULE
3kgp_ligand_010
    20    20
SMALL
GAST_HUCK
****
This file was generated by PARSER (from files_GN.cpp)

@<TRIPOS>ATOM
      1 C         -32.1925   84.1900  -22.0717 C.2         1 MOL       0.0584
      2 O         -32.5761   84.9413  -23.1319 O.co2       1 MOL      -0.5625
      3 C1        -33.1154   83.7747  -21.0756 C.ar        1 MOL       0.0032
      4 N1        -36.3296   83.5719  -17.1400 N.4         1 MOL       0.2312
      5 C2        -34.5004   83.6975  -21.3517 C.ar        1 MOL      -0.0541
      6 C3        -35.4166   83.2959  -20.3619 C.ar        1 MOL      -0.0515
      7 C4        -34.9724   82.9464  -19.0671 C.ar        1 MOL       0.0041
      8 C5        -33.5898   83.0156  -18.7877 C.ar        1 MOL      -0.0515
      9 C6        -32.6758   83.4271  -19.7758 C.ar        1 MOL      -0.0541
     10 C7        -35.9466   82.4867  -18.0466 C.3         1 MOL      -0.0004
     11 OXT       -30.8940   83.8027  -22.0458 O.co2       1 MOL      -0.5625
     12 H1        -37.0515   83.2242  -16.5058 H           1 MOL       0.2008
     13 H2        -36.7014   84.3605  -17.6713 H           1 MOL       0.2008
     14 H3        -35.5179   83.8775  -16.6020 H           1 MOL       0.2008
     15 H4        -34.8597   83.9191  -22.2826 H           1 MOL       0.0634
     16 H5        -36.4113   83.2470  -20.5979 H           1 MOL       0.0566
     17 H6        -33.2368   82.7705  -17.8593 H           1 MOL       0.0566
     18 H7        -31.6839   83.4713  -19.5314 H           1 MOL       0.0634
     19 H8        -36.8411   82.1116  -18.5434 H           1 MOL       0.0985
     20 H9        -35.5431   81.6734  -17.4406 H           1 MOL       0.0985
@<TRIPOS>BOND
     1     1     2  ar
     2     3     1   1
     3     1    11  ar
     4     5     3  ar
     5     3     9  ar
     6    10     4   1
     7     6     5  ar
     8     7     6  ar
     9     7     8  ar
    10     7    10   1
    11     8     9  ar
    12     4    12   1
    13     4    13   1
    14     4    14   1
    15     5    15   1
    16     6    16   1
    17     8    17   1
    18     9    18   1
    19    10    19   1
    20    10    20   1
@<TRIPOS>SUBSTRUCTURE
     1  MOL      1

