@<TRIPOS>MOLECULE
3kgp_ligand_006
    20    20
SMALL
GAST_HUCK
****
This file was generated by PARSER (from files_GN.cpp)

@<TRIPOS>ATOM
      1 C         -24.1937   85.3489   -9.1552 C.2         1 MOL       0.0584
      2 O         -24.4928   85.9043  -10.3474 O.co2       1 MOL      -0.5625
      3 C1        -23.6323   84.0602   -9.0850 C.ar        1 MOL       0.0032
      4 N1        -20.7747   80.0709   -7.8615 N.4         1 MOL       0.2312
      5 C2        -24.0237   83.1426   -8.0768 C.ar        1 MOL      -0.0541
      6 C3        -23.4580   81.8549   -8.0144 C.ar        1 MOL      -0.0515
      7 C4        -22.4622   81.4568   -8.9327 C.ar        1 MOL       0.0041
      8 C5        -22.0562   82.3730   -9.9251 C.ar        1 MOL      -0.0515
      9 C6        -22.6460   83.6485  -10.0120 C.ar        1 MOL      -0.0541
     10 C7        -21.8595   80.1092   -8.8517 C.3         1 MOL      -0.0004
     11 OXT       -24.5263   86.0634   -8.0503 O.co2       1 MOL      -0.5625
     12 H1        -20.3125   79.1574   -7.9108 H           1 MOL       0.2008
     13 H2        -21.1385   80.2008   -6.9151 H           1 MOL       0.2008
     14 H3        -20.0893   80.8013   -8.0630 H           1 MOL       0.2008
     15 H4        -24.7510   83.3959   -7.4066 H           1 MOL       0.0634
     16 H5        -23.7819   81.2070   -7.2931 H           1 MOL       0.0566
     17 H6        -21.3386   82.1162  -10.6010 H           1 MOL       0.0566
     18 H7        -22.3166   84.2927  -10.7425 H           1 MOL       0.0634
     19 H8        -22.6154   79.3714   -8.5774 H           1 MOL       0.0985
     20 H9        -21.4367   79.8115   -9.8132 H           1 MOL       0.0985
@<TRIPOS>BOND
     1     1     2  ar
     2     3     1   1
     3     1    11  ar
     4     5     3  ar
     5     3     9  ar
     6    10     4   1
     7     6     5  ar
     8     7     6  ar
     9     7     8  ar
    10     7    10   1
    11     8     9  ar
    12     4    12   1
    13     4    13   1
    14     4    14   1
    15     5    15   1
    16     6    16   1
    17     8    17   1
    18     9    18   1
    19    10    19   1
    20    10    20   1
@<TRIPOS>SUBSTRUCTURE
     1  MOL      1

