@<TRIPOS>MOLECULE
3kgp_ligand_021
    20    20
SMALL
GAST_HUCK
****
This file was generated by PARSER (from files_GN.cpp)

@<TRIPOS>ATOM
      1 C         -40.0217   84.2610  -22.3991 C.2         1 MOL       0.0584
      2 O         -39.9109   84.2090  -23.7496 O.co2       1 MOL      -0.5625
      3 C1        -38.9460   83.8907  -21.5625 C.ar        1 MOL       0.0032
      4 N1        -35.9389   82.1894  -17.6688 N.4         1 MOL       0.2312
      5 C2        -37.6127   83.8439  -22.0413 C.ar        1 MOL      -0.0541
      6 C3        -36.5613   83.4321  -21.2091 C.ar        1 MOL      -0.0515
      7 C4        -36.7922   83.0597  -19.8628 C.ar        1 MOL       0.0041
      8 C5        -38.1198   83.1181  -19.3746 C.ar        1 MOL      -0.0515
      9 C6        -39.1774   83.5367  -20.2093 C.ar        1 MOL      -0.0541
     10 C7        -35.6363   82.6529  -19.0245 C.3         1 MOL      -0.0004
     11 OXT       -41.2250   84.6706  -21.9011 O.co2       1 MOL      -0.5625
     12 H1        -35.0640   81.9235  -17.1944 H           1 MOL       0.2008
     13 H2        -36.5588   81.3810  -17.7095 H           1 MOL       0.2008
     14 H3        -36.3972   82.9319  -17.1397 H           1 MOL       0.2008
     15 H4        -37.4070   84.1173  -23.0074 H           1 MOL       0.0634
     16 H5        -35.6188   83.4111  -21.5969 H           1 MOL       0.0566
     17 H6        -38.3359   82.8523  -18.4164 H           1 MOL       0.0566
     18 H7        -40.1272   83.5620  -19.8191 H           1 MOL       0.0634
     19 H8        -35.1145   81.8386  -19.5381 H           1 MOL       0.0985
     20 H9        -34.9468   83.4965  -18.9336 H           1 MOL       0.0985
@<TRIPOS>BOND
     1     1     2  ar
     2     3     1   1
     3     1    11  ar
     4     5     3  ar
     5     3     9  ar
     6    10     4   1
     7     6     5  ar
     8     7     6  ar
     9     7     8  ar
    10     7    10   1
    11     8     9  ar
    12     4    12   1
    13     4    13   1
    14     4    14   1
    15     5    15   1
    16     6    16   1
    17     8    17   1
    18     9    18   1
    19    10    19   1
    20    10    20   1
@<TRIPOS>SUBSTRUCTURE
     1  MOL      1

