@<TRIPOS>MOLECULE
3kgp_ligand_016
    20    20
SMALL
GAST_HUCK
****
This file was generated by PARSER (from files_GN.cpp)

@<TRIPOS>ATOM
      1 C         -26.5220   83.0438  -10.9583 C.2         1 MOL       0.0584
      2 O         -27.0208   82.8427  -12.2005 O.co2       1 MOL      -0.5625
      3 C1        -25.3820   82.3347  -10.5161 C.ar        1 MOL       0.0032
      4 N1        -21.9569   79.8503   -7.7270 N.4         1 MOL       0.2312
      5 C2        -25.1022   81.0386  -11.0072 C.ar        1 MOL      -0.0541
      6 C3        -23.9742   80.3279  -10.5583 C.ar        1 MOL      -0.0515
      7 C4        -23.0819   80.8954   -9.6231 C.ar        1 MOL       0.0041
      8 C5        -23.3582   82.1949   -9.1328 C.ar        1 MOL      -0.0515
      9 C6        -24.4995   82.8984   -9.5656 C.ar        1 MOL      -0.0541
     10 C7        -21.8832   80.1447   -9.1627 C.3         1 MOL      -0.0004
     11 OXT       -27.1499   83.9331  -10.1529 O.co2       1 MOL      -0.5625
     12 H1        -21.1186   79.3396   -7.4417 H           1 MOL       0.2008
     13 H2        -22.7846   79.2767   -7.5370 H           1 MOL       0.2008
     14 H3        -22.0152   80.7209   -7.1971 H           1 MOL       0.2008
     15 H4        -25.7326   80.5822  -11.6742 H           1 MOL       0.0634
     16 H5        -23.8086   79.3887  -10.9258 H           1 MOL       0.0566
     17 H6        -22.7265   82.6357   -8.4561 H           1 MOL       0.0566
     18 H7        -24.6640   83.8420   -9.2043 H           1 MOL       0.0634
     19 H8        -21.7730   79.1891   -9.6812 H           1 MOL       0.0985
     20 H9        -20.9855   80.7311   -9.3596 H           1 MOL       0.0985
@<TRIPOS>BOND
     1     1     2  ar
     2     3     1   1
     3     1    11  ar
     4     5     3  ar
     5     3     9  ar
     6    10     4   1
     7     6     5  ar
     8     7     6  ar
     9     7     8  ar
    10     7    10   1
    11     8     9  ar
    12     4    12   1
    13     4    13   1
    14     4    14   1
    15     5    15   1
    16     6    16   1
    17     8    17   1
    18     9    18   1
    19    10    19   1
    20    10    20   1
@<TRIPOS>SUBSTRUCTURE
     1  MOL      1

