@<TRIPOS>MOLECULE
3kgp_ligand_011
    20    20
SMALL
GAST_HUCK
****
This file was generated by PARSER (from files_GN.cpp)

@<TRIPOS>ATOM
      1 C         -30.3571   84.2506  -16.2048 C.2         1 MOL       0.0584
      2 O         -29.4139   83.8450  -15.3028 O.co2       1 MOL      -0.5625
      3 C1        -31.5173   83.4762  -16.4134 C.ar        1 MOL       0.0032
      4 N1        -35.9183   81.7401  -18.1409 N.4         1 MOL       0.2312
      5 C2        -32.4481   83.2532  -15.3677 C.ar        1 MOL      -0.0541
      6 C3        -33.6147   82.4911  -15.5936 C.ar        1 MOL      -0.0515
      7 C4        -33.8648   81.9175  -16.8629 C.ar        1 MOL       0.0041
      8 C5        -32.9400   82.1395  -17.8998 C.ar        1 MOL      -0.0515
      9 C6        -31.7839   82.9155  -17.6893 C.ar        1 MOL      -0.0541
     10 C7        -35.0802   81.0881  -17.1224 C.3         1 MOL      -0.0004
     11 OXT       -30.3181   85.5267  -16.6430 O.co2       1 MOL      -0.5625
     12 H1        -36.7681   81.1886  -18.2810 H           1 MOL       0.2008
     13 H2        -35.4026   81.8192  -19.0305 H           1 MOL       0.2008
     14 H3        -36.1734   82.6796  -17.8106 H           1 MOL       0.2008
     15 H4        -32.2789   83.6636  -14.4541 H           1 MOL       0.0634
     16 H5        -34.2668   82.3644  -14.8214 H           1 MOL       0.0566
     17 H6        -33.1011   81.7236  -18.8261 H           1 MOL       0.0566
     18 H7        -31.1228   83.0354  -18.4681 H           1 MOL       0.0634
     19 H8        -34.7713   80.0989  -17.4706 H           1 MOL       0.0985
     20 H9        -35.6829   80.9538  -16.2228 H           1 MOL       0.0985
@<TRIPOS>BOND
     1     1     2  ar
     2     3     1   1
     3     1    11  ar
     4     5     3  ar
     5     3     9  ar
     6    10     4   1
     7     6     5  ar
     8     7     6  ar
     9     7     8  ar
    10     7    10   1
    11     8     9  ar
    12     4    12   1
    13     4    13   1
    14     4    14   1
    15     5    15   1
    16     6    16   1
    17     8    17   1
    18     9    18   1
    19    10    19   1
    20    10    20   1
@<TRIPOS>SUBSTRUCTURE
     1  MOL      1

