@<TRIPOS>MOLECULE
3kgp_ligand_022
    20    20
SMALL
GAST_HUCK
****
This file was generated by PARSER (from files_GN.cpp)

@<TRIPOS>ATOM
      1 C         -29.6589   78.6605  -16.0509 C.2         1 MOL       0.0584
      2 O         -28.6465   79.4323  -16.5316 O.co2       1 MOL      -0.5625
      3 C1        -30.9925   78.8218  -16.4898 C.ar        1 MOL       0.0032
      4 N1        -35.4238   80.7558  -17.9551 N.4         1 MOL       0.2312
      5 C2        -31.2862   79.5818  -17.6498 C.ar        1 MOL      -0.0541
      6 C3        -32.6125   79.7356  -18.0880 C.ar        1 MOL      -0.0515
      7 C4        -33.6880   79.1672  -17.3605 C.ar        1 MOL       0.0041
      8 C5        -33.3944   78.4028  -16.2030 C.ar        1 MOL      -0.0515
      9 C6        -32.0666   78.2339  -15.7720 C.ar        1 MOL      -0.0541
     10 C7        -35.0787   79.3410  -17.8264 C.3         1 MOL      -0.0004
     11 OXT       -29.3215   77.7461  -15.1023 O.co2       1 MOL      -0.5625
     12 H1        -36.4224   80.8468  -18.1263 H           1 MOL       0.2008
     13 H2        -34.8954   81.1895  -18.7213 H           1 MOL       0.2008
     14 H3        -35.2070   81.2529  -17.0811 H           1 MOL       0.2008
     15 H4        -30.5501   80.0198  -18.1904 H           1 MOL       0.0634
     16 H5        -32.7980   80.2959  -18.9274 H           1 MOL       0.0566
     17 H6        -34.1443   77.9623  -15.6714 H           1 MOL       0.0566
     18 H7        -31.9014   77.6891  -14.9305 H           1 MOL       0.0634
     19 H8        -35.1999   78.8611  -18.7901 H           1 MOL       0.0985
     20 H9        -35.7913   78.8926  -17.1322 H           1 MOL       0.0985
@<TRIPOS>BOND
     1     1     2  ar
     2     3     1   1
     3     1    11  ar
     4     5     3  ar
     5     3     9  ar
     6    10     4   1
     7     6     5  ar
     8     7     6  ar
     9     7     8  ar
    10     7    10   1
    11     8     9  ar
    12     4    12   1
    13     4    13   1
    14     4    14   1
    15     5    15   1
    16     6    16   1
    17     8    17   1
    18     9    18   1
    19    10    19   1
    20    10    20   1
@<TRIPOS>SUBSTRUCTURE
     1  MOL      1

