@<TRIPOS>MOLECULE
3kgp_ligand_014
    20    20
SMALL
GAST_HUCK
****
This file was generated by PARSER (from files_GN.cpp)

@<TRIPOS>ATOM
      1 C         -29.8506   87.2895  -20.3211 C.2         1 MOL       0.0584
      2 O         -30.8862   87.9092  -20.9455 O.co2       1 MOL      -0.5625
      3 C1        -28.9176   88.0047  -19.5202 C.ar        1 MOL       0.0032
      4 N1        -24.8676   89.9884  -17.1109 N.4         1 MOL       0.2312
      5 C2        -28.0575   87.3272  -18.6183 C.ar        1 MOL      -0.0541
      6 C3        -27.2027   88.0341  -17.7578 C.ar        1 MOL      -0.0515
      7 C4        -27.1576   89.4475  -17.7842 C.ar        1 MOL       0.0041
      8 C5        -28.0034   90.1328  -18.6894 C.ar        1 MOL      -0.0515
      9 C6        -28.8691   89.4209  -19.5420 C.ar        1 MOL      -0.0541
     10 C7        -26.2915   90.1722  -16.8211 C.3         1 MOL      -0.0004
     11 OXT       -29.6950   85.9573  -20.5429 O.co2       1 MOL      -0.5625
     12 H1        -24.3301   90.2425  -16.2847 H           1 MOL       0.2008
     13 H2        -24.5744   90.5918  -17.8765 H           1 MOL       0.2008
     14 H3        -24.6872   89.0154  -17.3582 H           1 MOL       0.2008
     15 H4        -28.0777   86.2961  -18.5558 H           1 MOL       0.0634
     16 H5        -26.6282   87.5026  -17.0864 H           1 MOL       0.0566
     17 H6        -28.0250   91.1502  -18.7036 H           1 MOL       0.0566
     18 H7        -29.4575   89.9505  -20.1895 H           1 MOL       0.0634
     19 H8        -26.5134   91.2386  -16.8072 H           1 MOL       0.0985
     20 H9        -26.4827   89.7768  -15.8226 H           1 MOL       0.0985
@<TRIPOS>BOND
     1     1     2  ar
     2     3     1   1
     3     1    11  ar
     4     5     3  ar
     5     3     9  ar
     6    10     4   1
     7     6     5  ar
     8     7     6  ar
     9     7     8  ar
    10     7    10   1
    11     8     9  ar
    12     4    12   1
    13     4    13   1
    14     4    14   1
    15     5    15   1
    16     6    16   1
    17     8    17   1
    18     9    18   1
    19    10    19   1
    20    10    20   1
@<TRIPOS>SUBSTRUCTURE
     1  MOL      1

