@<TRIPOS>MOLECULE
3kgp_ligand_020
    20    20
SMALL
GAST_HUCK
****
This file was generated by PARSER (from files_GN.cpp)

@<TRIPOS>ATOM
      1 C         -26.0179   83.1112  -10.6588 C.2         1 MOL       0.0584
      2 O         -27.0019   83.8179  -10.0520 O.co2       1 MOL      -0.5625
      3 C1        -24.7671   82.8844  -10.0251 C.ar        1 MOL       0.0032
      4 N1        -21.0774   81.0806   -7.0818 N.4         1 MOL       0.2312
      5 C2        -24.2121   83.8598   -9.1664 C.ar        1 MOL      -0.0541
      6 C3        -22.9788   83.6435   -8.5245 C.ar        1 MOL      -0.0515
      7 C4        -22.2625   82.4370   -8.7135 C.ar        1 MOL       0.0041
      8 C5        -22.8182   81.4586   -9.5746 C.ar        1 MOL      -0.0515
      9 C6        -24.0470   81.6835  -10.2269 C.ar        1 MOL      -0.0541
     10 C7        -20.9646   82.1862   -8.0389 C.3         1 MOL      -0.0004
     11 OXT       -26.3041   82.5975  -11.8812 O.co2       1 MOL      -0.5625
     12 H1        -20.1673   80.9094   -6.6473 H           1 MOL       0.2008
     13 H2        -21.3853   80.2342   -7.5663 H           1 MOL       0.2008
     14 H3        -21.7551   81.3215   -6.3546 H           1 MOL       0.2008
     15 H4        -24.6883   84.7476   -9.0037 H           1 MOL       0.0634
     16 H5        -22.6066   84.3719   -7.9081 H           1 MOL       0.0566
     17 H6        -22.3262   80.5768   -9.7386 H           1 MOL       0.0566
     18 H7        -24.4142   80.9519  -10.8374 H           1 MOL       0.0634
     19 H8        -20.2073   81.9373   -8.7805 H           1 MOL       0.0985
     20 H9        -20.6194   83.0668   -7.4938 H           1 MOL       0.0985
@<TRIPOS>BOND
     1     1     2  ar
     2     3     1   1
     3     1    11  ar
     4     5     3  ar
     5     3     9  ar
     6    10     4   1
     7     6     5  ar
     8     7     6  ar
     9     7     8  ar
    10     7    10   1
    11     8     9  ar
    12     4    12   1
    13     4    13   1
    14     4    14   1
    15     5    15   1
    16     6    16   1
    17     8    17   1
    18     9    18   1
    19    10    19   1
    20    10    20   1
@<TRIPOS>SUBSTRUCTURE
     1  MOL      1

