@<TRIPOS>MOLECULE
3kv2_ligand_014
    24    23
SMALL
GAST_HUCK
****
This file was generated by PARSER (from files_GN.cpp)

@<TRIPOS>ATOM
      1 N          29.6002   -7.9563   -4.4614 N.4         1 NNH       0.2327
      2 CA         28.4810   -8.5593   -5.2168 C.3         1 NNH       0.0302
      3 C          27.7955   -7.5238   -6.0306 C.2         1 NNH       0.0845
      4 O          28.2352   -6.2463   -6.0934 O.co2       1 NNH      -0.5643
      5 CB         27.5030   -9.2982   -4.2490 C.3         1 NNH       0.0223
      6 CG         27.9688  -10.7227   -3.8371 C.3         1 NNH       0.0355
      7 ND         27.6040  -11.0463   -2.4939 N.pl3       1 NNH      -0.2909
      8 CE         26.5112  -11.7149   -2.0545 C.2         1 NNH       0.1842
      9 NH1        26.3544  -11.9715   -0.7395 N.2         1 NNH      -0.2131
     10 NH2        25.5556  -12.1763   -2.8797 N.pl3       1 NNH      -0.3050
     11 OH1        27.1821  -11.6457    0.2219 O.3         1 NNH      -0.3179
     12 OXT        26.8167   -7.8871   -6.8919 O.co2       1 NNH      -0.5643
     13 H1         30.1535   -8.6701   -3.9813 H           1 NNH       0.2010
     14 H2         29.2252   -7.3070   -3.7669 H           1 NNH       0.2010
     15 H3         30.2129   -7.4455   -5.1019 H           1 NNH       0.2010
     16 H4         28.9082   -9.2805   -5.9170 H           1 NNH       0.1025
     17 H5         26.5204   -9.3997   -4.7174 H           1 NNH       0.0358
     18 H6         27.3750   -8.6862   -3.3542 H           1 NNH       0.0358
     19 H7         29.0595  -10.7779   -3.8794 H           1 NNH       0.0520
     20 H8         27.5793  -11.4657   -4.5389 H           1 NNH       0.0520
     21 H9         28.2636  -10.8278   -1.8231 H           1 NNH       0.1821
     22 H10        24.8130  -12.6849   -2.5129 H           1 NNH       0.1785
     23 H11        25.6312  -12.0454   -3.8396 H           1 NNH       0.1785
     24 H12        28.0180  -11.3554   -0.2015 H           1 NNH       0.2457
@<TRIPOS>BOND
     1     1     2   1
     2     2     3   1
     3     2     5   1
     4     3     4  ar
     5     3    12  ar
     6     5     6   1
     7     6     7   1
     8     7     8   1
     9     8     9   2
    10     8    10   1
    11     9    11   1
    12     1    13   1
    13     1    14   1
    14     1    15   1
    15     2    16   1
    16     5    17   1
    17     5    18   1
    18     6    19   1
    19     6    20   1
    20     7    21   1
    21    10    22   1
    22    10    23   1
    23    11    24   1
@<TRIPOS>SUBSTRUCTURE
     1  NNH      2

