@<TRIPOS>MOLECULE
3kv2_ligand_009
    24    23
SMALL
GAST_HUCK
****
This file was generated by PARSER (from files_GN.cpp)

@<TRIPOS>ATOM
      1 N          24.0311  -11.4700   -1.4436 N.4         1 NNH       0.2327
      2 CA         24.6489  -10.6007   -2.4629 C.3         1 NNH       0.0302
      3 C          23.6540  -10.3749   -3.5313 C.2         1 NNH       0.0845
      4 O          22.5781   -9.6022   -3.2612 O.co2       1 NNH      -0.5643
      5 CB         26.0080  -11.1926   -2.9580 C.3         1 NNH       0.0223
      6 CG         27.2609  -10.6485   -2.2031 C.3         1 NNH       0.0355
      7 ND         27.9337   -9.6154   -2.9348 N.pl3       1 NNH      -0.2909
      8 CE         28.7523   -9.7917   -3.9953 C.2         1 NNH       0.1842
      9 NH1        29.0704  -11.0265   -4.4496 N.2         1 NNH      -0.2131
     10 NH2        29.2559   -8.6838   -4.5633 N.pl3       1 NNH      -0.3050
     11 OH1        29.8576  -11.2874   -5.4527 O.3         1 NNH      -0.3179
     12 OXT        23.5937  -11.1847   -4.6229 O.co2       1 NNH      -0.5643
     13 H1         24.5455  -11.3859   -0.5642 H           1 NNH       0.2010
     14 H2         24.0331  -12.4419   -1.7656 H           1 NNH       0.2010
     15 H3         23.0642  -11.1701   -1.2871 H           1 NNH       0.2010
     16 H4         24.8340   -9.6224   -2.0036 H           1 NNH       0.1025
     17 H5         26.1343  -10.9933   -4.0276 H           1 NNH       0.0358
     18 H6         25.9748  -12.2838   -2.8482 H           1 NNH       0.0358
     19 H7         27.9608  -11.4614   -1.9973 H           1 NNH       0.0520
     20 H8         26.9738  -10.2365   -1.2322 H           1 NNH       0.0520
     21 H9         27.7662   -8.6977   -2.6698 H           1 NNH       0.1821
     22 H10        29.8573   -8.7446   -5.3269 H           1 NNH       0.1785
     23 H11        29.0069   -7.8074   -4.2078 H           1 NNH       0.1785
     24 H12        30.0242  -12.2489   -5.3470 H           1 NNH       0.2457
@<TRIPOS>BOND
     1     1     2   1
     2     2     3   1
     3     2     5   1
     4     3     4  ar
     5     3    12  ar
     6     5     6   1
     7     6     7   1
     8     7     8   1
     9     8     9   2
    10     8    10   1
    11     9    11   1
    12     1    13   1
    13     1    14   1
    14     1    15   1
    15     2    16   1
    16     5    17   1
    17     5    18   1
    18     6    19   1
    19     6    20   1
    20     7    21   1
    21    10    22   1
    22    10    23   1
    23    11    24   1
@<TRIPOS>SUBSTRUCTURE
     1  NNH      2

