@<TRIPOS>MOLECULE
3kv2_ligand_006
    24    23
SMALL
GAST_HUCK
****
This file was generated by PARSER (from files_GN.cpp)

@<TRIPOS>ATOM
      1 N          24.2281   -9.5164   -5.0776 N.4         1 NNH       0.2327
      2 CA         24.9045   -8.4320   -4.3456 C.3         1 NNH       0.0302
      3 C          24.4175   -7.1409   -4.8796 C.2         1 NNH       0.0845
      4 O          24.9504   -6.6393   -6.0191 O.co2       1 NNH      -0.5643
      5 CB         26.4574   -8.5767   -4.4231 C.3         1 NNH       0.0223
      6 CG         27.1846   -9.5248   -3.4031 C.3         1 NNH       0.0355
      7 ND         26.3657  -10.1864   -2.4327 N.pl3       1 NNH      -0.2909
      8 CE         25.7576  -11.3877   -2.5360 C.2         1 NNH       0.1842
      9 NH1        25.8058  -12.2722   -3.5559 N.2         1 NNH      -0.2131
     10 NH2        24.9986  -11.7455   -1.4850 N.pl3       1 NNH      -0.3050
     11 OH1        26.4982  -12.1778   -4.6556 O.3         1 NNH      -0.3179
     12 OXT        23.1755   -6.7124   -4.5537 O.co2       1 NNH      -0.5643
     13 H1         24.5020  -10.4189   -4.6964 H           1 NNH       0.2010
     14 H2         24.4894   -9.4805   -6.0666 H           1 NNH       0.2010
     15 H3         23.2175   -9.4134   -4.9906 H           1 NNH       0.2010
     16 H4         24.5898   -8.4857   -3.3031 H           1 NNH       0.1025
     17 H5         26.8950   -7.5822   -4.3039 H           1 NNH       0.0358
     18 H6         26.7195   -8.9000   -5.4372 H           1 NNH       0.0358
     19 H7         27.8912   -8.9280   -2.8234 H           1 NNH       0.0520
     20 H8         27.8102  -10.2495   -3.9338 H           1 NNH       0.0520
     21 H9         26.2329   -9.7121   -1.5919 H           1 NNH       0.1821
     22 H10        24.5282  -12.5935   -1.4895 H           1 NNH       0.1785
     23 H11        24.9279  -11.1544   -0.7134 H           1 NNH       0.1785
     24 H12        25.9387  -12.6526   -5.3384 H           1 NNH       0.2457
@<TRIPOS>BOND
     1     1     2   1
     2     2     3   1
     3     2     5   1
     4     3     4  ar
     5     3    12  ar
     6     5     6   1
     7     6     7   1
     8     7     8   1
     9     8     9   2
    10     8    10   1
    11     9    11   1
    12     1    13   1
    13     1    14   1
    14     1    15   1
    15     2    16   1
    16     5    17   1
    17     5    18   1
    18     6    19   1
    19     6    20   1
    20     7    21   1
    21    10    22   1
    22    10    23   1
    23    11    24   1
@<TRIPOS>SUBSTRUCTURE
     1  NNH      2

