@<TRIPOS>MOLECULE
3kv2_ligand_015
    24    23
SMALL
GAST_HUCK
****
This file was generated by PARSER (from files_GN.cpp)

@<TRIPOS>ATOM
      1 N          25.0769  -10.6329   -6.2448 N.4         1 NNH       0.2327
      2 CA         26.1151  -11.0389   -5.2797 C.3         1 NNH       0.0302
      3 C          27.3679  -10.3292   -5.6350 C.2         1 NNH       0.0845
      4 O          28.2909  -10.8861   -6.4557 O.co2       1 NNH      -0.5643
      5 CB         26.2711  -12.5922   -5.0900 C.3         1 NNH       0.0223
      6 CG         25.2731  -13.4884   -5.8717 C.3         1 NNH       0.0355
      7 ND         25.6770  -14.8600   -5.8208 N.pl3       1 NNH      -0.2909
      8 CE         25.0690  -15.8820   -5.1759 C.2         1 NNH       0.1842
      9 NH1        23.9421  -15.7166   -4.4529 N.2         1 NNH      -0.2131
     10 NH2        25.6527  -17.0873   -5.2820 N.pl3       1 NNH      -0.3050
     11 OH1        23.3706  -16.6722   -3.7683 O.3         1 NNH      -0.3179
     12 OXT        27.4034   -8.9826   -5.5307 O.co2       1 NNH      -0.5643
     13 H1         24.1725  -11.0127   -5.9558 H           1 NNH       0.2010
     14 H2         25.3121  -10.9840   -7.1755 H           1 NNH       0.2010
     15 H3         25.0113   -9.6108   -6.2772 H           1 NNH       0.2010
     16 H4         25.7898  -10.6258   -4.3224 H           1 NNH       0.1025
     17 H5         26.1608  -12.8264   -4.0237 H           1 NNH       0.0358
     18 H6         27.2773  -12.9206   -5.3617 H           1 NNH       0.0358
     19 H7         25.2703  -13.2115   -6.9259 H           1 NNH       0.0520
     20 H8         24.2637  -13.3257   -5.4849 H           1 NNH       0.0520
     21 H9         26.4967  -15.0771   -6.2895 H           1 NNH       0.1821
     22 H10        25.2808  -17.8635   -4.8395 H           1 NNH       0.1785
     23 H11        26.4870  -17.1844   -5.7630 H           1 NNH       0.1785
     24 H12        22.4996  -16.2971   -3.5214 H           1 NNH       0.2457
@<TRIPOS>BOND
     1     1     2   1
     2     2     3   1
     3     2     5   1
     4     3     4  ar
     5     3    12  ar
     6     5     6   1
     7     6     7   1
     8     7     8   1
     9     8     9   2
    10     8    10   1
    11     9    11   1
    12     1    13   1
    13     1    14   1
    14     1    15   1
    15     2    16   1
    16     5    17   1
    17     5    18   1
    18     6    19   1
    19     6    20   1
    20     7    21   1
    21    10    22   1
    22    10    23   1
    23    11    24   1
@<TRIPOS>SUBSTRUCTURE
     1  NNH      2

