@<TRIPOS>MOLECULE
3kv2_ligand_008
    24    23
SMALL
GAST_HUCK
****
This file was generated by PARSER (from files_GN.cpp)

@<TRIPOS>ATOM
      1 N          30.2261   -7.5847   -3.8012 N.4         1 NNH       0.2327
      2 CA         29.4695   -8.6392   -4.5005 C.3         1 NNH       0.0302
      3 C          28.7302   -8.0534   -5.6460 C.2         1 NNH       0.0845
      4 O          28.2217   -8.8562   -6.6077 O.co2       1 NNH      -0.5643
      5 CB         28.6291   -9.4714   -3.4643 C.3         1 NNH       0.0223
      6 CG         27.0855   -9.4953   -3.6372 C.3         1 NNH       0.0355
      7 ND         26.4207  -10.1420   -2.5436 N.pl3       1 NNH      -0.2909
      8 CE         25.7918  -11.3395   -2.5757 C.2         1 NNH       0.1842
      9 NH1        25.7823  -12.1018   -3.6983 N.2         1 NNH      -0.2131
     10 NH2        25.1625  -11.7223   -1.4534 N.pl3       1 NNH      -0.3050
     11 OH1        25.2262  -13.2676   -3.8691 O.3         1 NNH      -0.3179
     12 OXT        28.6484   -6.7173   -5.8434 O.co2       1 NNH      -0.5643
     13 H1         30.8584   -8.0287   -3.1343 H           1 NNH       0.2010
     14 H2         29.5737   -6.9787   -3.3001 H           1 NNH       0.2010
     15 H3         30.7707   -7.0343   -4.4670 H           1 NNH       0.2010
     16 H4         30.2314   -9.2969   -4.9319 H           1 NNH       0.1025
     17 H5         28.8447   -9.1161   -2.4510 H           1 NNH       0.0358
     18 H6         28.9730  -10.5103   -3.4992 H           1 NNH       0.0358
     19 H7         26.8502   -9.9721   -4.5885 H           1 NNH       0.0520
     20 H8         26.7093   -8.4717   -3.6818 H           1 NNH       0.0520
     21 H9         26.4028   -9.6676   -1.6887 H           1 NNH       0.1821
     22 H10        24.6756  -12.5631   -1.4228 H           1 NNH       0.1785
     23 H11        25.1777  -11.1438   -0.6705 H           1 NNH       0.1785
     24 H12        24.9806  -13.6045   -2.9774 H           1 NNH       0.2457
@<TRIPOS>BOND
     1     1     2   1
     2     2     3   1
     3     2     5   1
     4     3     4  ar
     5     3    12  ar
     6     5     6   1
     7     6     7   1
     8     7     8   1
     9     8     9   2
    10     8    10   1
    11     9    11   1
    12     1    13   1
    13     1    14   1
    14     1    15   1
    15     2    16   1
    16     5    17   1
    17     5    18   1
    18     6    19   1
    19     6    20   1
    20     7    21   1
    21    10    22   1
    22    10    23   1
    23    11    24   1
@<TRIPOS>SUBSTRUCTURE
     1  NNH      2

